
     RDKit          3D

  0  0  0  0  0  0  0  0  0  0999 V3000
M  V30 BEGIN CTAB
M  V30 COUNTS 47 50 0 0 0
M  V30 BEGIN ATOM
M  V30 1 C 6.12551 0.336221 -0.614243 0
M  V30 2 N 4.75663 0.448166 -0.21999 0
M  V30 3 C 4.19277 1.76622 -0.376986 0
M  V30 4 C 2.7193 1.6264 -0.587894 0
M  V30 5 N 2.10539 0.699126 0.376183 0
M  V30 6 C 0.689278 0.67673 -0.0261202 0
M  V30 7 C -0.0256999 -0.237079 0.918609 0
M  V30 8 C -1.36039 -0.572769 0.935831 0
M  V30 9 C -1.75942 -1.42792 1.90744 0
M  V30 10 C -3.05798 -1.91277 2.12878 0
M  V30 11 N -4.173 -1.54881 1.32041 0
M  V30 12 N -3.29213 -2.75308 3.13372 0
M  V30 13 C -2.35835 -3.19348 3.9859 0
M  V30 14 N -1.10394 -2.7469 3.80004 0
M  V30 15 C -0.813772 -1.87839 2.77632 0
M  V30 16 S 0.609302 -1.10866 2.23077 0
M  V30 17 C -2.2369 0.0395906 -0.117203 0
M  V30 18 C -2.75802 1.30405 0.0489998 0
M  V30 19 C -3.55304 1.9119 -0.898816 0
M  V30 20 C -3.84782 1.23831 -2.06779 0
M  V30 21 N -4.66139 1.81242 -3.08165 0
M  V30 22 C -3.32729 -0.0273685 -2.23632 0
M  V30 23 C -2.5336 -0.626339 -1.28297 0
M  V30 24 C 2.68225 -0.624402 0.197591 0
M  V30 25 C 3.89593 -0.578038 -0.732697 0
M  V30 26 H 6.49776 1.37096 -0.840767 0
M  V30 27 H 6.74487 0.0037483 0.258565 0
M  V30 28 H 6.29956 -0.269583 -1.51794 0
M  V30 29 H 4.35056 2.34649 0.562649 0
M  V30 30 H 4.60312 2.29819 -1.26158 0
M  V30 31 H 2.41538 1.29613 -1.58372 0
M  V30 32 H 2.20464 2.60963 -0.38314 0
M  V30 33 H 0.584341 0.355246 -1.07854 0
M  V30 34 H 0.311059 1.68693 0.123909 0
M  V30 35 H -4.67587 -0.670741 1.48089 0
M  V30 36 H -4.46353 -2.22007 0.559023 0
M  V30 37 H -2.65973 -3.87331 4.76405 0
M  V30 38 H -2.53503 1.85295 0.968373 0
M  V30 39 H -3.96037 2.92149 -0.749442 0
M  V30 40 H -5.26482 1.2477 -3.71321 0
M  V30 41 H -4.65663 2.84662 -3.20203 0
M  V30 42 H -3.58121 -0.536035 -3.17797 0
M  V30 43 H -2.14573 -1.62263 -1.45698 0
M  V30 44 H 3.10528 -0.921634 1.19409 0
M  V30 45 H 1.96962 -1.39131 -0.101411 0
M  V30 46 H 3.51932 -0.407267 -1.74591 0
M  V30 47 H 4.42378 -1.54665 -0.616815 0
M  V30 END ATOM
M  V30 BEGIN BOND
M  V30 1 1 1 2
M  V30 2 1 2 3
M  V30 3 1 3 4
M  V30 4 1 4 5
M  V30 5 1 5 6
M  V30 6 1 6 7
M  V30 7 2 7 8
M  V30 8 1 8 9
M  V30 9 2 9 10
M  V30 10 1 10 11
M  V30 11 1 10 12
M  V30 12 2 12 13
M  V30 13 1 13 14
M  V30 14 2 14 15
M  V30 15 1 15 16
M  V30 16 1 8 17
M  V30 17 2 17 18
M  V30 18 1 18 19
M  V30 19 2 19 20
M  V30 20 1 20 21
M  V30 21 1 20 22
M  V30 22 2 22 23
M  V30 23 1 5 24
M  V30 24 1 24 25
M  V30 25 1 25 2
M  V30 26 1 16 7
M  V30 27 1 23 17
M  V30 28 1 15 9
M  V30 29 1 1 26
M  V30 30 1 1 27
M  V30 31 1 1 28
M  V30 32 1 3 29
M  V30 33 1 3 30
M  V30 34 1 4 31
M  V30 35 1 4 32
M  V30 36 1 6 33
M  V30 37 1 6 34
M  V30 38 1 11 35
M  V30 39 1 11 36
M  V30 40 1 13 37
M  V30 41 1 18 38
M  V30 42 1 19 39
M  V30 43 1 21 40
M  V30 44 1 21 41
M  V30 45 1 22 42
M  V30 46 1 23 43
M  V30 47 1 24 44
M  V30 48 1 24 45
M  V30 49 1 25 46
M  V30 50 1 25 47
M  V30 END BOND
M  V30 END CTAB
M  END
