
     RDKit          3D

  0  0  0  0  0  0  0  0  0  0999 V3000
M  V30 BEGIN CTAB
M  V30 COUNTS 23 23 0 0 0
M  V30 BEGIN ATOM
M  V30 1 C 3.0781 0.562787 0.195386 0
M  V30 2 O 2.09043 0.303134 -0.781827 0
M  V30 3 C 0.752262 0.0959997 -0.447621 0
M  V30 4 C 0.31083 -1.18264 -0.182641 0
M  V30 5 N 1.21746 -2.27784 -0.251123 0
M  V30 6 C -1.01464 -1.36442 0.145406 0
M  V30 7 C -1.89042 -0.309324 0.211914 0
M  V30 8 C -3.31553 -0.550563 0.570466 0
M  V30 9 C -1.40303 0.964872 -0.0630627 0
M  V30 10 C -0.0757195 1.18156 -0.395998 0
M  V30 11 N 0.391713 2.48842 -0.670572 0
M  V30 12 H 3.95162 1.02034 -0.310123 0
M  V30 13 H 2.72908 1.25373 0.989853 0
M  V30 14 H 3.42917 -0.356849 0.707444 0
M  V30 15 H 1.53753 -2.5807 -1.19071 0
M  V30 16 H 1.50737 -2.71165 0.640312 0
M  V30 17 H -1.37029 -2.35605 0.353977 0
M  V30 18 H -3.99827 0.198865 0.145369 0
M  V30 19 H -3.34835 -0.607341 1.68049 0
M  V30 20 H -3.61998 -1.53589 0.194799 0
M  V30 21 H -2.08191 1.81045 -0.0150262 0
M  V30 22 H 0.895684 2.71104 -1.54508 0
M  V30 23 H 0.226896 3.24207 0.018372 0
M  V30 END ATOM
M  V30 BEGIN BOND
M  V30 1 1 1 2
M  V30 2 1 2 3
M  V30 3 2 3 4
M  V30 4 1 4 5
M  V30 5 1 4 6
M  V30 6 2 6 7
M  V30 7 1 7 8
M  V30 8 1 7 9
M  V30 9 2 9 10
M  V30 10 1 10 11
M  V30 11 1 10 3
M  V30 12 1 1 12
M  V30 13 1 1 13
M  V30 14 1 1 14
M  V30 15 1 5 15
M  V30 16 1 5 16
M  V30 17 1 6 17
M  V30 18 1 8 18
M  V30 19 1 8 19
M  V30 20 1 8 20
M  V30 21 1 9 21
M  V30 22 1 11 22
M  V30 23 1 11 23
M  V30 END BOND
M  V30 END CTAB
M  END
