
     RDKit          3D

  0  0  0  0  0  0  0  0  0  0999 V3000
M  V30 BEGIN CTAB
M  V30 COUNTS 42 43 0 0 0
M  V30 BEGIN ATOM
M  V30 1 N -4.12431 0.25934 2.183 0
M  V30 2 C -2.85991 0.527793 1.51856 0
M  V30 3 C -2.70292 -0.148541 0.203543 0
M  V30 4 C -3.71452 0.21033 -0.836479 0
M  V30 5 C -3.68417 1.72584 -1.16743 0
M  V30 6 C -4.9054 1.01517 -0.663969 0
M  V30 7 N -1.39283 0.133705 -0.33425 0
M  V30 8 C -0.154091 -0.230337 0.239737 0
M  V30 9 O -0.167658 -0.866233 1.3212 0
M  V30 10 C 1.13444 0.136517 -0.430522 0
M  V30 11 C 2.2537 -0.382826 0.403956 0
M  V30 12 C 3.58806 -0.109533 -0.108061 0
M  V30 13 C 3.78819 0.772244 -1.14404 0
M  V30 14 C 5.07315 1.03002 -1.63106 0
M  V30 15 C 6.1599 0.398604 -1.07391 0
M  V30 16 C 5.97638 -0.496 -0.0257925 0
M  V30 17 C 4.69118 -0.727579 0.431364 0
M  V30 18 N 2.013 -1.81204 0.613634 0
M  V30 19 C -2.76892 -1.66658 0.361089 0
M  V30 20 H -4.19968 -0.778287 2.31882 0
M  V30 21 H -4.0225 0.651047 3.15917 0
M  V30 22 H -2.75688 1.62078 1.36511 0
M  V30 23 H -2.09225 0.226171 2.22163 0
M  V30 24 H -3.62993 -0.424345 -1.75893 0
M  V30 25 H -3.21559 2.40479 -0.457663 0
M  V30 26 H -3.58889 2.01712 -2.21767 0
M  V30 27 H -5.36216 1.36288 0.259043 0
M  V30 28 H -5.68466 0.902004 -1.47931 0
M  V30 29 H -1.3453 0.66423 -1.24303 0
M  V30 30 H 1.16902 -0.310865 -1.46135 0
M  V30 31 H 1.18816 1.24133 -0.590411 0
M  V30 32 H 2.13652 0.0747658 1.43029 0
M  V30 33 H 2.95654 1.28447 -1.60361 0
M  V30 34 H 5.24399 1.71858 -2.44221 0
M  V30 35 H 7.1813 0.57883 -1.43286 0
M  V30 36 H 6.85339 -0.974727 0.388664 0
M  V30 37 H 4.58655 -1.42292 1.24033 0
M  V30 38 H 2.44009 -2.12165 1.51212 0
M  V30 39 H 2.27445 -2.38567 -0.1959 0
M  V30 40 H -2.1532 -2.115 -0.442355 0
M  V30 41 H -3.79947 -2.04824 0.219654 0
M  V30 42 H -2.38274 -1.93521 1.3499 0
M  V30 END ATOM
M  V30 BEGIN BOND
M  V30 1 1 1 2
M  V30 2 1 2 3
M  V30 3 1 3 4
M  V30 4 1 4 5
M  V30 5 1 5 6
M  V30 6 1 3 7
M  V30 7 1 7 8
M  V30 8 2 8 9
M  V30 9 1 8 10
M  V30 10 1 10 11
M  V30 11 1 11 12
M  V30 12 2 12 13
M  V30 13 1 13 14
M  V30 14 2 14 15
M  V30 15 1 15 16
M  V30 16 2 16 17
M  V30 17 1 11 18
M  V30 18 1 3 19
M  V30 19 1 6 4
M  V30 20 1 17 12
M  V30 21 1 1 20
M  V30 22 1 1 21
M  V30 23 1 2 22
M  V30 24 1 2 23
M  V30 25 1 4 24
M  V30 26 1 5 25
M  V30 27 1 5 26
M  V30 28 1 6 27
M  V30 29 1 6 28
M  V30 30 1 7 29
M  V30 31 1 10 30
M  V30 32 1 10 31
M  V30 33 1 11 32
M  V30 34 1 13 33
M  V30 35 1 14 34
M  V30 36 1 15 35
M  V30 37 1 16 36
M  V30 38 1 17 37
M  V30 39 1 18 38
M  V30 40 1 18 39
M  V30 41 1 19 40
M  V30 42 1 19 41
M  V30 43 1 19 42
M  V30 END BOND
M  V30 END CTAB
M  END
