
     RDKit          3D

  0  0  0  0  0  0  0  0  0  0999 V3000
M  V30 BEGIN CTAB
M  V30 COUNTS 46 47 0 0 0
M  V30 BEGIN ATOM
M  V30 1 C 6.42109 1.42274 -1.53826 0
M  V30 2 C 5.18733 1.09888 -0.821982 0
M  V30 3 N 4.11079 1.85919 -1.00894 0
M  V30 4 C 2.96612 1.59804 -0.374354 0
M  V30 5 C 2.87699 0.544795 0.479863 0
M  V30 6 C 1.63056 0.24904 1.18034 0
M  V30 7 S 0.298625 1.40624 0.774164 0
M  V30 8 S -0.300658 1.21913 -1.25602 0
M  V30 9 C -1.62079 0.00567125 -1.46282 0
M  V30 10 C -2.86323 0.497739 -0.838197 0
M  V30 11 C -3.98102 -0.342464 -0.893688 0
M  V30 12 C -3.87793 -1.65268 -1.54393 0
M  V30 13 N -5.04363 -2.45361 -1.56498 0
M  V30 14 C -5.14199 0.113781 -0.323741 0
M  V30 15 O -6.32436 -0.522885 -0.263432 0
M  V30 16 C -5.11037 1.39522 0.271728 0
M  V30 17 C -6.38044 1.86448 0.882618 0
M  V30 18 N -4.04428 2.16838 0.311123 0
M  V30 19 C -2.89223 1.72882 -0.248307 0
M  V30 20 C 3.9787 -0.288805 0.714469 0
M  V30 21 C 3.79656 -1.40104 1.65399 0
M  V30 22 N 4.96877 -2.19179 1.82619 0
M  V30 23 C 5.1506 -0.00761842 0.0540691 0
M  V30 24 O 6.2763 -0.701946 0.171456 0
M  V30 25 H 6.33844 1.31534 -2.63577 0
M  V30 26 H 6.71111 2.47024 -1.2466 0
M  V30 27 H 7.256 0.768084 -1.16057 0
M  V30 28 H 2.11009 2.22373 -0.537214 0
M  V30 29 H 1.78174 0.323745 2.28955 0
M  V30 30 H 1.27751 -0.797931 1.0234 0
M  V30 31 H -1.33403 -0.9966 -1.0826 0
M  V30 32 H -1.74471 -0.118352 -2.57789 0
M  V30 33 H -2.96165 -2.21029 -1.2181 0
M  V30 34 H -3.64573 -1.41892 -2.6352 0
M  V30 35 H -5.22841 -2.98112 -2.43194 0
M  V30 36 H -5.13205 -3.05023 -0.701912 0
M  V30 37 H -6.81377 -1.29525 -0.478755 0
M  V30 38 H -6.37513 1.55029 1.95726 0
M  V30 39 H -7.26198 1.36717 0.428836 0
M  V30 40 H -6.53638 2.95163 0.771215 0
M  V30 41 H -1.9945 2.32349 -0.24922 0
M  V30 42 H 3.50571 -1.04598 2.6781 0
M  V30 43 H 2.98864 -2.08484 1.28876 0
M  V30 44 H 5.04467 -2.94905 1.11297 0
M  V30 45 H 5.12474 -2.56179 2.78028 0
M  V30 46 H 6.80819 -1.39267 0.508077 0
M  V30 END ATOM
M  V30 BEGIN BOND
M  V30 1 1 1 2
M  V30 2 2 2 3
M  V30 3 1 3 4
M  V30 4 2 4 5
M  V30 5 1 5 6
M  V30 6 1 6 7
M  V30 7 1 7 8
M  V30 8 1 8 9
M  V30 9 1 9 10
M  V30 10 2 10 11
M  V30 11 1 11 12
M  V30 12 1 12 13
M  V30 13 1 11 14
M  V30 14 1 14 15
M  V30 15 2 14 16
M  V30 16 1 16 17
M  V30 17 1 16 18
M  V30 18 2 18 19
M  V30 19 1 5 20
M  V30 20 1 20 21
M  V30 21 1 21 22
M  V30 22 2 20 23
M  V30 23 1 23 24
M  V30 24 1 23 2
M  V30 25 1 19 10
M  V30 26 1 1 25
M  V30 27 1 1 26
M  V30 28 1 1 27
M  V30 29 1 4 28
M  V30 30 1 6 29
M  V30 31 1 6 30
M  V30 32 1 9 31
M  V30 33 1 9 32
M  V30 34 1 12 33
M  V30 35 1 12 34
M  V30 36 1 13 35
M  V30 37 1 13 36
M  V30 38 1 15 37
M  V30 39 1 17 38
M  V30 40 1 17 39
M  V30 41 1 17 40
M  V30 42 1 19 41
M  V30 43 1 21 42
M  V30 44 1 21 43
M  V30 45 1 22 44
M  V30 46 1 22 45
M  V30 47 1 24 46
M  V30 END BOND
M  V30 END CTAB
M  END
