
     RDKit          3D

  0  0  0  0  0  0  0  0  0  0999 V3000
M  V30 BEGIN CTAB
M  V30 COUNTS 25 25 0 0 0
M  V30 BEGIN ATOM
M  V30 1 F -4.49885 -0.259066 0.183149 0
M  V30 2 C -3.37184 -0.759322 0.814623 0
M  V30 3 O -2.38068 -1.15493 -0.0937418 0
M  V30 4 C -1.12995 -0.567265 -0.192606 0
M  V30 5 C -0.955415 0.498675 -1.05133 0
M  V30 6 N -2.01464 1.02325 -1.84537 0
M  V30 7 C 0.285946 1.12093 -1.18294 0
M  V30 8 C 1.35409 0.650409 -0.432362 0
M  V30 9 C 1.15121 -0.415489 0.417117 0
M  V30 10 C -0.0835825 -1.04915 0.560666 0
M  V30 11 N -0.218212 -2.14504 1.45821 0
M  V30 12 C 2.67182 1.28269 -0.548528 0
M  V30 13 O 2.8498 2.24187 -1.31751 0
M  V30 14 C 3.80368 0.772607 0.259602 0
M  V30 15 F -3.71917 -1.78 1.69665 0
M  V30 16 H -2.95732 0.0867867 1.40981 0
M  V30 17 H -2.59565 0.39836 -2.46197 0
M  V30 18 H -2.2297 2.04282 -1.82548 0
M  V30 19 H 0.462481 1.95704 -1.84365 0
M  V30 20 H 1.96367 -0.797909 1.00865 0
M  V30 21 H -0.514158 -3.07843 1.09951 0
M  V30 22 H -0.0320578 -2.06077 2.4784 0
M  V30 23 H 4.57916 1.56279 0.295105 0
M  V30 24 H 3.40792 0.607991 1.29566 0
M  V30 25 H 4.17146 -0.178853 -0.181666 0
M  V30 END ATOM
M  V30 BEGIN BOND
M  V30 1 1 1 2
M  V30 2 1 2 3
M  V30 3 1 3 4
M  V30 4 2 4 5
M  V30 5 1 5 6
M  V30 6 1 5 7
M  V30 7 2 7 8
M  V30 8 1 8 9
M  V30 9 2 9 10
M  V30 10 1 10 11
M  V30 11 1 8 12
M  V30 12 2 12 13
M  V30 13 1 12 14
M  V30 14 1 2 15
M  V30 15 1 10 4
M  V30 16 1 2 16
M  V30 17 1 6 17
M  V30 18 1 6 18
M  V30 19 1 7 19
M  V30 20 1 9 20
M  V30 21 1 11 21
M  V30 22 1 11 22
M  V30 23 1 14 23
M  V30 24 1 14 24
M  V30 25 1 14 25
M  V30 END BOND
M  V30 END CTAB
M  END
