
     RDKit          3D

  0  0  0  0  0  0  0  0  0  0999 V3000
M  V30 BEGIN CTAB
M  V30 COUNTS 34 36 0 0 0
M  V30 BEGIN ATOM
M  V30 1 C -3.22951 1.95774 -0.205019 0
M  V30 2 O -3.38789 0.578622 -0.492872 0
M  V30 3 C -2.26875 -0.225301 -0.318609 0
M  V30 4 C -2.3749 -1.5748 -0.585334 0
M  V30 5 N -3.63858 -2.07864 -1.0296 0
M  V30 6 C -1.28253 -2.37964 -0.418921 0
M  V30 7 C -0.0757844 -1.88292 0.00797946 0
M  V30 8 C 0.0547413 -0.549381 0.278721 0
M  V30 9 C -1.04141 0.248851 0.110205 0
M  V30 10 C 1.34685 0.0166017 0.777347 0
M  V30 11 C 1.6205 -0.0354691 2.12864 0
M  V30 12 C 0.745597 -0.613957 3.21327 0
M  V30 13 S 3.13809 0.688344 2.25709 0
M  V30 14 C 3.42246 1.05281 0.614455 0
M  V30 15 N 4.45015 1.64822 -0.070496 0
M  V30 16 C 4.41826 1.81438 -1.39902 0
M  V30 17 N 3.32905 1.36725 -2.01674 0
M  V30 18 C 2.27549 0.771868 -1.42469 0
M  V30 19 N 1.17479 0.342953 -2.20602 0
M  V30 20 C 2.29187 0.588026 -0.0208396 0
M  V30 21 H -4.1931 2.50658 -0.286944 0
M  V30 22 H -2.8406 2.1181 0.829319 0
M  V30 23 H -2.51784 2.46653 -0.887076 0
M  V30 24 H -3.92818 -2.07801 -2.02417 0
M  V30 25 H -4.31358 -2.46894 -0.336012 0
M  V30 26 H -1.3823 -3.45162 -0.634966 0
M  V30 27 H 0.785119 -2.58305 0.127579 0
M  V30 28 H -1.02968 1.33586 0.303933 0
M  V30 29 H 1.39237 -1.07015 4.01067 0
M  V30 30 H 0.14695 0.187376 3.7055 0
M  V30 31 H 0.0876537 -1.39751 2.85054 0
M  V30 32 H 5.25614 2.28937 -1.88204 0
M  V30 33 H 1.1169 -0.633643 -2.524 0
M  V30 34 H 0.451649 1.04353 -2.45186 0
M  V30 END ATOM
M  V30 BEGIN BOND
M  V30 1 1 1 2
M  V30 2 1 2 3
M  V30 3 2 3 4
M  V30 4 1 4 5
M  V30 5 1 4 6
M  V30 6 2 6 7
M  V30 7 1 7 8
M  V30 8 2 8 9
M  V30 9 1 8 10
M  V30 10 2 10 11
M  V30 11 1 11 12
M  V30 12 1 11 13
M  V30 13 1 13 14
M  V30 14 2 14 15
M  V30 15 1 15 16
M  V30 16 2 16 17
M  V30 17 1 17 18
M  V30 18 1 18 19
M  V30 19 2 18 20
M  V30 20 1 9 3
M  V30 21 1 20 10
M  V30 22 1 20 14
M  V30 23 1 1 21
M  V30 24 1 1 22
M  V30 25 1 1 23
M  V30 26 1 5 24
M  V30 27 1 5 25
M  V30 28 1 6 26
M  V30 29 1 7 27
M  V30 30 1 9 28
M  V30 31 1 12 29
M  V30 32 1 12 30
M  V30 33 1 12 31
M  V30 34 1 16 32
M  V30 35 1 19 33
M  V30 36 1 19 34
M  V30 END BOND
M  V30 END CTAB
M  END
