
     RDKit          3D

  0  0  0  0  0  0  0  0  0  0999 V3000
M  V30 BEGIN CTAB
M  V30 COUNTS 33 35 0 0 0
M  V30 BEGIN ATOM
M  V30 1 N -5.55232 -2.30585 1.33269 0
M  V30 2 C -4.91379 -1.18878 0.723419 0
M  V30 3 N -3.60075 -1.00437 0.799182 0
M  V30 4 C -2.98118 0.0411688 0.232269 0
M  V30 5 C -1.48313 0.179637 0.363718 0
M  V30 6 S -0.736078 -0.658532 -0.990943 0
M  V30 7 C 1.00776 -0.646739 -1.13605 0
M  V30 8 N 1.59464 -1.30726 -2.2064 0
M  V30 9 N 2.87992 -1.16776 -2.12643 0
M  V30 10 C 3.21149 -0.424328 -1.0248 0
M  V30 11 N 2.02095 -0.13192 -0.453138 0
M  V30 12 C 1.90565 0.646684 0.769361 0
M  V30 13 C 4.5674 -0.0805924 -0.642868 0
M  V30 14 C 5.04618 0.660121 0.377789 0
M  V30 15 C 6.44368 0.670312 0.281333 0
M  V30 16 C 6.73372 -0.087119 -0.824716 0
M  V30 17 O 5.62095 -0.497635 -1.32308 0
M  V30 18 N -3.73126 0.931383 -0.436965 0
M  V30 19 C -5.074 0.77546 -0.535005 0
M  V30 20 N -5.65099 -0.289839 0.0505459 0
M  V30 21 N -5.89947 1.68511 -1.22788 0
M  V30 22 H -5.29011 -2.53788 2.30766 0
M  V30 23 H -6.25515 -2.88114 0.842585 0
M  V30 24 H -1.26254 1.28007 0.418387 0
M  V30 25 H -1.26915 -0.265271 1.37778 0
M  V30 26 H 0.881069 0.622698 1.16333 0
M  V30 27 H 2.28991 1.67463 0.660161 0
M  V30 28 H 2.51544 0.150466 1.58274 0
M  V30 29 H 4.52493 1.18495 1.16275 0
M  V30 30 H 7.15565 1.16021 0.925364 0
M  V30 31 H 7.7619 -0.266162 -1.16256 0
M  V30 32 H -5.78804 1.92811 -2.23352 0
M  V30 33 H -6.67327 2.15017 -0.712864 0
M  V30 END ATOM
M  V30 BEGIN BOND
M  V30 1 1 1 2
M  V30 2 2 2 3
M  V30 3 1 3 4
M  V30 4 1 4 5
M  V30 5 1 5 6
M  V30 6 1 6 7
M  V30 7 2 7 8
M  V30 8 1 8 9
M  V30 9 2 9 10
M  V30 10 1 10 11
M  V30 11 1 11 12
M  V30 12 1 10 13
M  V30 13 2 13 14
M  V30 14 1 14 15
M  V30 15 2 15 16
M  V30 16 1 16 17
M  V30 17 2 4 18
M  V30 18 1 18 19
M  V30 19 2 19 20
M  V30 20 1 19 21
M  V30 21 1 20 2
M  V30 22 1 11 7
M  V30 23 1 17 13
M  V30 24 1 1 22
M  V30 25 1 1 23
M  V30 26 1 5 24
M  V30 27 1 5 25
M  V30 28 1 12 26
M  V30 29 1 12 27
M  V30 30 1 12 28
M  V30 31 1 14 29
M  V30 32 1 15 30
M  V30 33 1 16 31
M  V30 34 1 21 32
M  V30 35 1 21 33
M  V30 END BOND
M  V30 END CTAB
M  END
