
     RDKit          3D

  0  0  0  0  0  0  0  0  0  0999 V3000
M  V30 BEGIN CTAB
M  V30 COUNTS 21 22 0 0 0
M  V30 BEGIN ATOM
M  V30 1 N -2.79081 0.0651735 -0.542497 0
M  V30 2 C -1.53788 0.660093 -0.12885 0
M  V30 3 C -0.456853 -0.324618 -0.214201 0
M  V30 4 C -0.716931 -1.60573 -0.642405 0
M  V30 5 C 0.309592 -2.51109 -0.714947 0
M  V30 6 N 1.56155 -2.15881 -0.37281 0
M  V30 7 C 1.81671 -0.907682 0.0455982 0
M  V30 8 C 0.819987 0.053091 0.140192 0
M  V30 9 C 1.35421 1.23392 0.590959 0
M  V30 10 N 0.63678 2.44269 0.812137 0
M  V30 11 N 2.66657 0.985002 0.766867 0
M  V30 12 N 2.94604 -0.288177 0.443508 0
M  V30 13 H -3.26876 -0.430779 0.250781 0
M  V30 14 H -3.40429 0.703295 -1.06562 0
M  V30 15 H -1.32759 1.60969 -0.657959 0
M  V30 16 H -1.65725 0.93342 0.942242 0
M  V30 17 H -1.70493 -1.90518 -0.918746 0
M  V30 18 H 0.144789 -3.53447 -1.04885 0
M  V30 19 H 0.227266 2.6054 1.76618 0
M  V30 20 H 0.51264 3.14726 0.0726161 0
M  V30 21 H 3.86914 -0.772494 0.475798 0
M  V30 END ATOM
M  V30 BEGIN BOND
M  V30 1 1 1 2
M  V30 2 1 2 3
M  V30 3 2 3 4
M  V30 4 1 4 5
M  V30 5 2 5 6
M  V30 6 1 6 7
M  V30 7 2 7 8
M  V30 8 1 8 9
M  V30 9 1 9 10
M  V30 10 2 9 11
M  V30 11 1 11 12
M  V30 12 1 8 3
M  V30 13 1 12 7
M  V30 14 1 1 13
M  V30 15 1 1 14
M  V30 16 1 2 15
M  V30 17 1 2 16
M  V30 18 1 4 17
M  V30 19 1 5 18
M  V30 20 1 10 19
M  V30 21 1 10 20
M  V30 22 1 12 21
M  V30 END BOND
M  V30 END CTAB
M  END
