
     RDKit          3D

  0  0  0  0  0  0  0  0  0  0999 V3000
M  V30 BEGIN CTAB
M  V30 COUNTS 33 34 0 0 0
M  V30 BEGIN ATOM
M  V30 1 N 3.99001 1.28458 1.07154 0
M  V30 2 C 2.99464 1.79573 0.19305 0
M  V30 3 C 2.64207 0.732335 -0.810136 0
M  V30 4 N 2.13977 -0.456993 -0.192331 0
M  V30 5 C 1.83286 -1.49331 -1.1764 0
M  V30 6 C 0.333825 -1.69604 -1.15813 0
M  V30 7 C -0.102285 -0.331433 -0.628184 0 CFG=2
M  V30 8 C 0.907344 -0.236901 0.527322 0
M  V30 9 C -1.47626 -0.322792 -0.157342 0
M  V30 10 C -1.91112 -1.20939 0.802443 0
M  V30 11 C -3.20655 -1.17913 1.22604 0
M  V30 12 C -4.05578 -0.239084 0.66478 0
M  V30 13 C -3.61296 0.642664 -0.293311 0
M  V30 14 N -2.33385 0.571494 -0.673975 0
M  V30 15 N -4.49601 1.60888 -0.86671 0
M  V30 16 H 3.75586 0.466315 1.58398 0
M  V30 17 H 4.84068 1.75358 1.15075 0
M  V30 18 H 2.11728 2.15966 0.721185 0
M  V30 19 H 3.48769 2.64839 -0.355767 0
M  V30 20 H 1.95387 1.17881 -1.56411 0
M  V30 21 H 3.58528 0.47807 -1.34051 0
M  V30 22 H 2.31033 -2.43899 -0.843308 0
M  V30 23 H 2.21773 -1.22246 -2.17447 0
M  V30 24 H -0.0820593 -1.89971 -2.15529 0
M  V30 25 H 0.0756189 -2.45187 -0.405813 0
M  V30 26 H 0.0731478 0.427695 -1.38644 0
M  V30 27 H 0.818699 0.682863 1.07449 0
M  V30 28 H 0.690232 -1.15257 1.14068 0
M  V30 29 H -1.19798 -1.92033 1.20207 0
M  V30 30 H -3.56291 -1.87497 1.98462 0
M  V30 31 H -5.07738 -0.198571 0.983687 0
M  V30 32 H -4.14149 2.51167 -1.20388 0
M  V30 33 H -5.51032 1.38181 -0.937653 0
M  V30 END ATOM
M  V30 BEGIN BOND
M  V30 1 1 1 2
M  V30 2 1 2 3
M  V30 3 1 3 4
M  V30 4 1 4 5
M  V30 5 1 5 6
M  V30 6 1 6 7
M  V30 7 1 7 8
M  V30 8 1 7 9
M  V30 9 2 9 10
M  V30 10 1 10 11
M  V30 11 2 11 12
M  V30 12 1 12 13
M  V30 13 2 13 14
M  V30 14 1 13 15
M  V30 15 1 8 4
M  V30 16 1 14 9
M  V30 17 1 1 16
M  V30 18 1 1 17
M  V30 19 1 2 18
M  V30 20 1 2 19
M  V30 21 1 3 20
M  V30 22 1 3 21
M  V30 23 1 5 22
M  V30 24 1 5 23
M  V30 25 1 6 24
M  V30 26 1 6 25
M  V30 27 1 7 26 CFG=3
M  V30 28 1 8 27
M  V30 29 1 8 28
M  V30 30 1 10 29
M  V30 31 1 11 30
M  V30 32 1 12 31
M  V30 33 1 15 32
M  V30 34 1 15 33
M  V30 END BOND
M  V30 END CTAB
M  END
