
     RDKit          3D

  0  0  0  0  0  0  0  0  0  0999 V3000
M  V30 BEGIN CTAB
M  V30 COUNTS 22 23 0 0 0
M  V30 BEGIN ATOM
M  V30 1 N -2.17632 2.11039 0.462295 0
M  V30 2 N -2.58001 0.978057 -0.0598104 0
M  V30 3 C -1.95211 -0.0342541 -0.400024 0
M  V30 4 C -0.573996 -0.406799 -0.385792 0
M  V30 5 C -0.348933 -1.79557 -0.54041 0
M  V30 6 C 0.934643 -2.23656 -0.412866 0
M  V30 7 C 1.99548 -1.44707 -0.153351 0
M  V30 8 C 1.78646 -0.057334 0.000777996 0
M  V30 9 C 0.493519 0.416101 -0.122948 0
M  V30 10 S 0.740091 2.08645 0.0820526 0
M  V30 11 C 2.40922 2.16198 0.315823 0
M  V30 12 C 2.76354 0.846602 0.227321 0
M  V30 13 N -2.89987 -1.03721 -0.973446 0
M  V30 14 H -2.11882 3.00336 -0.0992681 0
M  V30 15 H -1.92039 2.19958 1.48027 0
M  V30 16 H -1.12517 -2.49617 -0.74692 0
M  V30 17 H 1.10337 -3.31985 -0.527557 0
M  V30 18 H 2.96519 -1.90788 -0.0729981 0
M  V30 19 H 3.03288 3.03542 0.490798 0
M  V30 20 H 3.85475 0.612965 0.352003 0
M  V30 21 H -3.3362 -0.817021 -1.84835 0
M  V30 22 H -3.04734 -1.89519 -0.434769 0
M  V30 END ATOM
M  V30 BEGIN BOND
M  V30 1 1 1 2
M  V30 2 2 2 3
M  V30 3 1 3 4
M  V30 4 2 4 5
M  V30 5 1 5 6
M  V30 6 2 6 7
M  V30 7 1 7 8
M  V30 8 2 8 9
M  V30 9 1 9 10
M  V30 10 1 10 11
M  V30 11 2 11 12
M  V30 12 1 3 13
M  V30 13 1 9 4
M  V30 14 1 12 8
M  V30 15 1 1 14
M  V30 16 1 1 15
M  V30 17 1 5 16
M  V30 18 1 6 17
M  V30 19 1 7 18
M  V30 20 1 11 19
M  V30 21 1 12 20
M  V30 22 1 13 21
M  V30 23 1 13 22
M  V30 END BOND
M  V30 END CTAB
M  END
