
     RDKit          3D

  0  0  0  0  0  0  0  0  0  0999 V3000
M  V30 BEGIN CTAB
M  V30 COUNTS 64 64 0 0 0
M  V30 BEGIN ATOM
M  V30 1 N 5.70476 1.6468 2.78302 0
M  V30 2 C 5.67271 2.37762 1.56345 0
M  V30 3 C 4.43733 2.09043 0.747946 0
M  V30 4 C 4.36728 0.634928 0.398623 0
M  V30 5 C 3.14114 0.332535 -0.414359 0
M  V30 6 C 3.08904 -1.15374 -0.759164 0 CFG=1
M  V30 7 C 1.87992 -1.44328 -1.55349 0
M  V30 8 O 1.9766 -1.55595 -2.82024 0
M  V30 9 N 0.607491 -1.60587 -0.980356 0
M  V30 10 C -0.55403 -1.85186 -1.79176 0
M  V30 11 C -0.895543 -0.74952 -2.75283 0
M  V30 12 C -2.32747 -0.908765 -3.19401 0
M  V30 13 C -3.06541 0.389232 -3.31387 0
M  V30 14 C -3.25673 1.11385 -2.02839 0
M  V30 15 C -3.82481 0.301314 -0.91811 0
M  V30 16 O -3.03199 0.363868 0.197393 0
M  V30 17 C -3.1517 -0.692521 1.07539 0 CFG=1
M  V30 18 C -1.82986 -1.28794 1.50703 0 CFG=1
M  V30 19 C -0.643857 -0.590409 0.869191 0 CFG=2
M  V30 20 C 0.439465 -1.55918 0.454135 0
M  V30 21 O -0.162103 0.433458 1.70003 0
M  V30 22 O -1.70376 -1.3948 2.8904 0
M  V30 23 C -3.96548 -0.19229 2.26098 0 CFG=1
M  V30 24 C -3.36731 1.05119 2.88101 0
M  V30 25 O -3.172 2.07222 1.97575 0
M  V30 26 O -5.20529 0.193854 1.72581 0
M  V30 27 N 4.25821 -1.43998 -1.60728 0
M  V30 28 H 5.92199 0.674452 2.71555 0
M  V30 29 H 6.18201 2.12581 3.5216 0
M  V30 30 H 6.5616 2.18228 0.951036 0
M  V30 31 H 5.70185 3.46892 1.81417 0
M  V30 32 H 3.53278 2.44225 1.28058 0
M  V30 33 H 4.53268 2.67701 -0.202447 0
M  V30 34 H 4.40263 0.0279442 1.32142 0
M  V30 35 H 5.27204 0.389587 -0.203077 0
M  V30 36 H 2.23964 0.588239 0.137097 0
M  V30 37 H 3.1324 0.933303 -1.35713 0
M  V30 38 H 3.17791 -1.733 0.164882 0
M  V30 39 H -0.344236 -2.80487 -2.36181 0
M  V30 40 H -1.46175 -2.07925 -1.19982 0
M  V30 41 H -0.662456 0.257566 -2.38986 0
M  V30 42 H -0.237465 -0.895865 -3.65996 0
M  V30 43 H -2.35823 -1.38213 -4.21998 0
M  V30 44 H -2.84069 -1.64152 -2.53904 0
M  V30 45 H -4.00543 0.202599 -3.8469 0
M  V30 46 H -2.45384 1.04706 -3.98315 0
M  V30 47 H -2.24469 1.50369 -1.71625 0
M  V30 48 H -3.85753 2.02074 -2.23234 0
M  V30 49 H -4.82268 0.753581 -0.641215 0
M  V30 50 H -4.03101 -0.744629 -1.14975 0
M  V30 51 H -3.79582 -1.4847 0.586897 0
M  V30 52 H -1.79397 -2.35752 1.14503 0
M  V30 53 H -1.016 -0.102032 -0.0468448 0
M  V30 54 H 1.35966 -1.39917 1.02511 0
M  V30 55 H 0.0701316 -2.58576 0.774389 0
M  V30 56 H -0.417164 1.33233 1.36592 0
M  V30 57 H -0.731328 -1.41075 3.09567 0
M  V30 58 H -4.06111 -0.946072 3.06621 0
M  V30 59 H -4.13825 1.41971 3.6077 0
M  V30 60 H -2.44224 0.878749 3.43027 0
M  V30 61 H -3.44081 2.93479 2.33576 0
M  V30 62 H -5.87765 -0.517193 1.81195 0
M  V30 63 H 5.09069 -1.66353 -1.01279 0
M  V30 64 H 4.43973 -0.687816 -2.2852 0
M  V30 END ATOM
M  V30 BEGIN BOND
M  V30 1 1 1 2
M  V30 2 1 2 3
M  V30 3 1 3 4
M  V30 4 1 4 5
M  V30 5 1 5 6
M  V30 6 1 6 7
M  V30 7 2 7 8
M  V30 8 1 7 9
M  V30 9 1 9 10
M  V30 10 1 10 11
M  V30 11 1 11 12
M  V30 12 1 12 13
M  V30 13 1 13 14
M  V30 14 1 14 15
M  V30 15 1 15 16
M  V30 16 1 16 17
M  V30 17 1 17 18
M  V30 18 1 18 19
M  V30 19 1 19 20
M  V30 20 1 19 21
M  V30 21 1 18 22
M  V30 22 1 17 23
M  V30 23 1 23 24
M  V30 24 1 24 25
M  V30 25 1 23 26
M  V30 26 1 6 27
M  V30 27 1 20 9
M  V30 28 1 1 28
M  V30 29 1 1 29
M  V30 30 1 2 30
M  V30 31 1 2 31
M  V30 32 1 3 32
M  V30 33 1 3 33
M  V30 34 1 4 34
M  V30 35 1 4 35
M  V30 36 1 5 36
M  V30 37 1 5 37
M  V30 38 1 6 38 CFG=1
M  V30 39 1 10 39
M  V30 40 1 10 40
M  V30 41 1 11 41
M  V30 42 1 11 42
M  V30 43 1 12 43
M  V30 44 1 12 44
M  V30 45 1 13 45
M  V30 46 1 13 46
M  V30 47 1 14 47
M  V30 48 1 14 48
M  V30 49 1 15 49
M  V30 50 1 15 50
M  V30 51 1 17 51 CFG=3
M  V30 52 1 18 52 CFG=3
M  V30 53 1 19 53 CFG=3
M  V30 54 1 20 54
M  V30 55 1 20 55
M  V30 56 1 21 56
M  V30 57 1 22 57
M  V30 58 1 23 58 CFG=1
M  V30 59 1 24 59
M  V30 60 1 24 60
M  V30 61 1 25 61
M  V30 62 1 26 62
M  V30 63 1 27 63
M  V30 64 1 27 64
M  V30 END BOND
M  V30 END CTAB
M  END
