
     RDKit          3D

  0  0  0  0  0  0  0  0  0  0999 V3000
M  V30 BEGIN CTAB
M  V30 COUNTS 24 26 0 0 0
M  V30 BEGIN ATOM
M  V30 1 N 4.58338 0.91989 1.36888 0
M  V30 2 C 4.17174 0.676123 0.0114423 0
M  V30 3 S 5.14522 0.995078 -1.25658 0
M  V30 4 N 2.86894 0.13959 -0.199445 0
M  V30 5 N 1.71148 0.775883 0.0309564 0
M  V30 6 C 0.736302 -0.0877816 -0.300327 0
M  V30 7 C 1.3257 -1.25754 -0.735106 0
M  V30 8 N 2.63996 -1.07451 -0.656828 0
M  V30 9 C 0.552157 -2.32354 -1.14083 0
M  V30 10 C -0.817557 -2.17056 -1.09336 0
M  V30 11 C -1.42447 -1.0065 -0.660851 0
M  V30 12 C -0.649322 0.0563941 -0.256275 0
M  V30 13 N -1.49194 1.01858 0.098759 0
M  V30 14 N -2.75467 0.651254 -0.048284 0
M  V30 15 N -2.6945 -0.593844 -0.515189 0
M  V30 16 C -3.9176 1.42186 0.232515 0
M  V30 17 S -4.37033 2.57414 -0.822456 0
M  V30 18 N -4.69558 1.22218 1.39745 0
M  V30 19 H 5.59927 0.943457 1.60648 0
M  V30 20 H 3.86482 1.07231 2.1113 0
M  V30 21 H 1.01118 -3.2607 -1.48926 0
M  V30 22 H -1.43478 -2.99947 -1.40895 0
M  V30 23 H -5.65482 0.81273 1.40118 0
M  V30 24 H -4.30456 1.49496 2.32478 0
M  V30 END ATOM
M  V30 BEGIN BOND
M  V30 1 1 1 2
M  V30 2 2 2 3
M  V30 3 1 2 4
M  V30 4 1 4 5
M  V30 5 2 5 6
M  V30 6 1 6 7
M  V30 7 2 7 8
M  V30 8 1 7 9
M  V30 9 2 9 10
M  V30 10 1 10 11
M  V30 11 1 11 12
M  V30 12 2 12 13
M  V30 13 1 13 14
M  V30 14 1 14 15
M  V30 15 1 14 16
M  V30 16 2 16 17
M  V30 17 1 16 18
M  V30 18 1 8 4
M  V30 19 2 15 11
M  V30 20 1 12 6
M  V30 21 1 1 19
M  V30 22 1 1 20
M  V30 23 1 9 21
M  V30 24 1 10 22
M  V30 25 1 18 23
M  V30 26 1 18 24
M  V30 END BOND
M  V30 END CTAB
M  END
