
     RDKit          3D

  0  0  0  0  0  0  0  0  0  0999 V3000
M  V30 BEGIN CTAB
M  V30 COUNTS 55 58 0 0 0
M  V30 BEGIN ATOM
M  V30 1 N -7.51869 0.0908849 0.412081 0
M  V30 2 C -6.72909 -0.553742 1.39414 0 CFG=2
M  V30 3 C -5.57914 0.295049 1.89298 0
M  V30 4 C -4.62866 -0.727642 1.32266 0 CFG=1
M  V30 5 C -5.78089 -1.54053 0.749452 0
M  V30 6 C -3.77576 -0.237685 0.212001 0
M  V30 7 C -2.40859 -0.53747 0.181816 0
M  V30 8 C -1.56535 -0.120219 -0.808073 0
M  V30 9 N -2.13641 0.628334 -1.80072 0
M  V30 10 C -3.4438 0.930944 -1.79749 0
M  V30 11 N -4.24624 0.501908 -0.80404 0
M  V30 12 N -4.03163 1.70996 -2.83303 0
M  V30 13 N -0.177524 -0.402803 -0.877193 0
M  V30 14 C 0.631139 0.151077 -1.98147 0
M  V30 15 C 1.64518 1.05948 -1.31998 0
M  V30 16 C 2.47705 0.261006 -0.28876 0
M  V30 17 C 1.54043 -0.309254 0.758311 0
M  V30 18 C 0.538076 -1.20298 0.0553097 0
M  V30 19 C 3.4489 1.23352 0.266688 0
M  V30 20 C 4.41282 0.737826 1.27913 0
M  V30 21 N 5.28556 -0.288063 0.78053 0
M  V30 22 C 5.07927 -1.605 0.817853 0
M  V30 23 C 6.13587 -2.27984 0.250115 0
M  V30 24 N 6.99645 -1.32581 -0.135977 0
M  V30 25 C 6.47874 -0.120793 0.186576 0
M  V30 26 C 7.13336 1.19896 -0.07698 0
M  V30 27 H -7.27594 -0.059128 -0.54651 0
M  V30 28 H -7.93628 0.944034 0.70738 0
M  V30 29 H -7.29824 -0.988358 2.24474 0
M  V30 30 H -5.48809 0.347174 3.00245 0
M  V30 31 H -5.45559 1.26434 1.36407 0
M  V30 32 H -4.04872 -1.30668 2.04004 0
M  V30 33 H -5.8212 -1.5785 -0.354594 0
M  V30 34 H -5.83967 -2.57813 1.14949 0
M  V30 35 H -2.02406 -1.12504 0.987439 0
M  V30 36 H -4.27963 1.2486 -3.72073 0
M  V30 37 H -4.20477 2.71195 -2.69721 0
M  V30 38 H 1.11348 -0.665761 -2.54745 0
M  V30 39 H -0.0131795 0.781484 -2.60263 0
M  V30 40 H 2.36648 1.48843 -2.02054 0
M  V30 41 H 1.09702 1.84974 -0.78801 0
M  V30 42 H 2.91855 -0.57709 -0.845766 0
M  V30 43 H 0.964218 0.469228 1.28015 0
M  V30 44 H 2.12874 -0.950149 1.4291 0
M  V30 45 H 1.07302 -2.03023 -0.463345 0
M  V30 46 H -0.131804 -1.67444 0.792406 0
M  V30 47 H 4.04369 1.63459 -0.607167 0
M  V30 48 H 2.94123 2.15495 0.665122 0
M  V30 49 H 5.09107 1.58734 1.5897 0
M  V30 50 H 3.94209 0.417226 2.232 0
M  V30 51 H 4.21591 -2.15285 1.22596 0
M  V30 52 H 6.29545 -3.33207 0.116127 0
M  V30 53 H 6.92049 1.91125 0.74263 0
M  V30 54 H 6.69534 1.61832 -1.00313 0
M  V30 55 H 8.22933 1.04267 -0.197473 0
M  V30 END ATOM
M  V30 BEGIN BOND
M  V30 1 1 1 2
M  V30 2 1 2 3
M  V30 3 1 3 4
M  V30 4 1 4 5
M  V30 5 1 4 6
M  V30 6 2 6 7
M  V30 7 1 7 8
M  V30 8 2 8 9
M  V30 9 1 9 10
M  V30 10 2 10 11
M  V30 11 1 10 12
M  V30 12 1 8 13
M  V30 13 1 13 14
M  V30 14 1 14 15
M  V30 15 1 15 16
M  V30 16 1 16 17
M  V30 17 1 17 18
M  V30 18 1 16 19
M  V30 19 1 19 20
M  V30 20 1 20 21
M  V30 21 1 21 22
M  V30 22 2 22 23
M  V30 23 1 23 24
M  V30 24 2 24 25
M  V30 25 1 25 26
M  V30 26 1 5 2
M  V30 27 1 11 6
M  V30 28 1 18 13
M  V30 29 1 25 21
M  V30 30 1 1 27
M  V30 31 1 1 28
M  V30 32 1 2 29 CFG=1
M  V30 33 1 3 30
M  V30 34 1 3 31
M  V30 35 1 4 32 CFG=1
M  V30 36 1 5 33
M  V30 37 1 5 34
M  V30 38 1 7 35
M  V30 39 1 12 36
M  V30 40 1 12 37
M  V30 41 1 14 38
M  V30 42 1 14 39
M  V30 43 1 15 40
M  V30 44 1 15 41
M  V30 45 1 16 42
M  V30 46 1 17 43
M  V30 47 1 17 44
M  V30 48 1 18 45
M  V30 49 1 18 46
M  V30 50 1 19 47
M  V30 51 1 19 48
M  V30 52 1 20 49
M  V30 53 1 20 50
M  V30 54 1 22 51
M  V30 55 1 23 52
M  V30 56 1 26 53
M  V30 57 1 26 54
M  V30 58 1 26 55
M  V30 END BOND
M  V30 END CTAB
M  END
