
     RDKit          3D

  0  0  0  0  0  0  0  0  0  0999 V3000
M  V30 BEGIN CTAB
M  V30 COUNTS 25 25 0 0 0
M  V30 BEGIN ATOM
M  V30 1 C 4.10638 -0.601312 1.1142 0
M  V30 2 C 3.30729 0.0596648 0.012402 0
M  V30 3 O 1.9168 -0.0497996 0.239825 0
M  V30 4 C 0.968593 0.47297 -0.622248 0
M  V30 5 O 1.37065 1.06823 -1.6476 0
M  V30 6 C -0.463147 0.367093 -0.399707 0
M  V30 7 C -0.927649 -0.292205 0.736521 0
M  V30 8 N 0.00504014 -0.845661 1.65131 0
M  V30 9 C -2.28757 -0.371455 0.911583 0
M  V30 10 C -3.19363 0.165789 0.0236044 0
M  V30 11 C -2.68591 0.804901 -1.07953 0
M  V30 12 C -1.33938 0.920428 -1.31596 0
M  V30 13 F -0.91081 1.56482 -2.42575 0
M  V30 14 N -4.60566 0.0745553 0.220589 0
M  V30 15 H 4.29677 -1.66493 0.844437 0
M  V30 16 H 3.65572 -0.481446 2.11081 0
M  V30 17 H 5.12414 -0.11408 1.08123 0
M  V30 18 H 3.61234 -0.450599 -0.941802 0
M  V30 19 H 3.5816 1.13563 -0.000440053 0
M  V30 20 H 0.124667 -1.88846 1.67032 0
M  V30 21 H 0.58099 -0.296248 2.30636 0
M  V30 22 H -2.679 -0.876057 1.78227 0
M  V30 23 H -3.36682 1.25016 -1.81753 0
M  V30 24 H -5.19222 0.937667 0.279731 0
M  V30 25 H -4.9992 -0.889644 0.299123 0
M  V30 END ATOM
M  V30 BEGIN BOND
M  V30 1 1 1 2
M  V30 2 1 2 3
M  V30 3 1 3 4
M  V30 4 2 4 5
M  V30 5 1 4 6
M  V30 6 2 6 7
M  V30 7 1 7 8
M  V30 8 1 7 9
M  V30 9 2 9 10
M  V30 10 1 10 11
M  V30 11 2 11 12
M  V30 12 1 12 13
M  V30 13 1 10 14
M  V30 14 1 12 6
M  V30 15 1 1 15
M  V30 16 1 1 16
M  V30 17 1 1 17
M  V30 18 1 2 18
M  V30 19 1 2 19
M  V30 20 1 8 20
M  V30 21 1 8 21
M  V30 22 1 9 22
M  V30 23 1 11 23
M  V30 24 1 14 24
M  V30 25 1 14 25
M  V30 END BOND
M  V30 END CTAB
M  END
