
     RDKit          3D

  0  0  0  0  0  0  0  0  0  0999 V3000
M  V30 BEGIN CTAB
M  V30 COUNTS 44 46 0 0 0
M  V30 BEGIN ATOM
M  V30 1 C -1.27792 3.01372 -0.990316 0
M  V30 2 O -1.86049 1.81489 -0.52431 0
M  V30 3 C -1.06537 0.728813 -0.17684 0
M  V30 4 C 0.306436 0.838822 -0.294074 0
M  V30 5 C 1.14778 -0.19896 0.0333311 0
M  V30 6 C 2.5853 -0.0209303 -0.112166 0
M  V30 7 N 3.43267 -0.951427 0.176095 0
M  V30 8 N 4.7911 -0.67741 0.000389918 0
M  V30 9 C 5.37716 0.237741 0.683992 0
M  V30 10 C 6.79512 0.551823 0.527327 0
M  V30 11 N 7.48294 1.4894 1.19959 0
M  V30 12 O 8.71356 1.4914 0.805714 0
M  V30 13 N 8.87334 0.591431 -0.103307 0
M  V30 14 C 7.72235 -0.0184563 -0.314334 0
M  V30 15 N 7.38124 -1.07335 -1.2099 0
M  V30 16 N 4.59975 0.958455 1.62068 0
M  V30 17 C 0.571252 -1.36105 0.485741 0
M  V30 18 C -0.81609 -1.48862 0.610196 0
M  V30 19 C -1.62291 -0.447872 0.279772 0
M  V30 20 O -3.01272 -0.482389 0.37076 0
M  V30 21 C -3.84132 -0.88769 -0.647572 0
M  V30 22 O -3.30641 -1.24891 -1.72672 0
M  V30 23 C -5.29567 -0.920354 -0.542656 0
M  V30 24 C -6.07402 -1.33747 -1.60072 0
M  V30 25 C -7.46241 -1.37363 -1.51428 0
M  V30 26 C -8.12428 -0.994112 -0.366801 0
M  V30 27 C -7.34586 -0.577303 0.690392 0
M  V30 28 C -5.96038 -0.540931 0.604945 0
M  V30 29 H -0.866841 2.81461 -1.99961 0
M  V30 30 H -2.02799 3.81638 -1.05264 0
M  V30 31 H -0.48081 3.37881 -0.302949 0
M  V30 32 H 0.735208 1.77186 -0.655384 0
M  V30 33 H 2.9629 0.90743 -0.46883 0
M  V30 34 H 7.78526 -2.01225 -1.17459 0
M  V30 35 H 6.671 -0.861531 -1.9461 0
M  V30 36 H 4.43457 1.9956 1.54397 0
M  V30 37 H 4.15086 0.490476 2.43732 0
M  V30 38 H 1.21179 -2.17806 0.74472 0
M  V30 39 H -1.25853 -2.39637 0.963139 0
M  V30 40 H -5.56762 -1.63758 -2.50582 0
M  V30 41 H -8.07723 -1.70302 -2.34977 0
M  V30 42 H -9.21394 -1.02114 -0.295192 0
M  V30 43 H -7.83783 -0.267804 1.61974 0
M  V30 44 H -5.33497 -0.213051 1.43482 0
M  V30 END ATOM
M  V30 BEGIN BOND
M  V30 1 1 1 2
M  V30 2 1 2 3
M  V30 3 2 3 4
M  V30 4 1 4 5
M  V30 5 1 5 6
M  V30 6 2 6 7
M  V30 7 1 7 8
M  V30 8 2 8 9
M  V30 9 1 9 10
M  V30 10 2 10 11
M  V30 11 1 11 12
M  V30 12 1 12 13
M  V30 13 2 13 14
M  V30 14 1 14 15
M  V30 15 1 9 16
M  V30 16 2 5 17
M  V30 17 1 17 18
M  V30 18 2 18 19
M  V30 19 1 19 20
M  V30 20 1 20 21
M  V30 21 2 21 22
M  V30 22 1 21 23
M  V30 23 2 23 24
M  V30 24 1 24 25
M  V30 25 2 25 26
M  V30 26 1 26 27
M  V30 27 2 27 28
M  V30 28 1 19 3
M  V30 29 1 28 23
M  V30 30 1 14 10
M  V30 31 1 1 29
M  V30 32 1 1 30
M  V30 33 1 1 31
M  V30 34 1 4 32
M  V30 35 1 6 33
M  V30 36 1 15 34
M  V30 37 1 15 35
M  V30 38 1 16 36
M  V30 39 1 16 37
M  V30 40 1 17 38
M  V30 41 1 18 39
M  V30 42 1 24 40
M  V30 43 1 25 41
M  V30 44 1 26 42
M  V30 45 1 27 43
M  V30 46 1 28 44
M  V30 END BOND
M  V30 END CTAB
M  END
