
     RDKit          3D

  0  0  0  0  0  0  0  0  0  0999 V3000
M  V30 BEGIN CTAB
M  V30 COUNTS 50 51 0 0 0
M  V30 BEGIN ATOM
M  V30 1 N -6.76847 -3.15209 -2.00295 0
M  V30 2 C -6.73053 -2.19181 -1.36302 0
M  V30 3 C -6.691 -0.983464 -0.550309 0
M  V30 4 C -7.38704 0.121345 -0.987377 0
M  V30 5 C -7.46053 1.29448 -0.261619 0
M  V30 6 C -8.20397 2.43528 -0.745425 0
M  V30 7 N -8.79675 3.36206 -1.13646 0
M  V30 8 C -6.79042 1.29641 0.938699 0
M  V30 9 N -6.1098 0.237108 1.38145 0
M  V30 10 C -6.02976 -0.933584 0.667268 0
M  V30 11 S -5.06732 -2.29168 1.19134 0
M  V30 12 C -3.33959 -2.12251 1.02129 0
M  V30 13 C -2.70655 -1.89625 -0.276843 0
M  V30 14 O -3.31812 -1.67511 -1.31166 0
M  V30 15 N -1.28317 -1.93901 -0.28933 0
M  V30 16 C -0.569496 -1.6837 -1.53873 0
M  V30 17 C 0.940623 -1.83565 -1.2473 0
M  V30 18 N 1.25646 -0.935176 -0.16534 0
M  V30 19 C 2.57542 -0.855408 0.388014 0
M  V30 20 O 3.50665 -1.5559 -0.0670009 0
M  V30 21 C 2.84442 0.0604899 1.52336 0
M  V30 22 S 3.56869 1.62802 1.11105 0
M  V30 23 C 5.24332 1.50903 0.543686 0
M  V30 24 N 6.2775 1.50981 1.43316 0
M  V30 25 C 7.55195 1.44303 1.02022 0
M  V30 26 N 8.60937 1.44456 1.97271 0
M  V30 27 C 7.86951 1.3704 -0.329952 0
M  V30 28 C 6.83628 1.36956 -1.22201 0
M  V30 29 C 5.52629 1.43889 -0.793092 0
M  V30 30 C 4.47408 1.46135 -1.79571 0
M  V30 31 N 3.63418 1.46151 -2.5896 0
M  V30 32 C 9.25698 1.30089 -0.761545 0
M  V30 33 N 10.3701 1.23829 -1.10964 0
M  V30 34 N -6.82926 2.48709 1.71071 0
M  V30 35 H -7.89801 0.04985 -1.94519 0
M  V30 36 H -2.85427 -3.07972 1.44791 0
M  V30 37 H -2.89195 -1.34863 1.73928 0
M  V30 38 H -0.731671 -2.15213 0.597992 0
M  V30 39 H -0.874453 -2.43366 -2.28459 0
M  V30 40 H -0.750031 -0.652442 -1.87359 0
M  V30 41 H 1.45949 -1.49972 -2.15482 0
M  V30 42 H 1.17316 -2.88366 -1.06652 0
M  V30 43 H 0.529866 -0.299533 0.2597 0
M  V30 44 H 3.4328 -0.472117 2.3241 0
M  V30 45 H 1.83132 0.214731 2.01809 0
M  V30 46 H 8.95969 0.56725 2.38787 0
M  V30 47 H 9.03531 2.33906 2.2592 0
M  V30 48 H 7.00997 1.31498 -2.29961 0
M  V30 49 H -6.85227 3.44018 1.26201 0
M  V30 50 H -6.83896 2.4773 2.75263 0
M  V30 END ATOM
M  V30 BEGIN BOND
M  V30 1 3 1 2
M  V30 2 1 2 3
M  V30 3 2 3 4
M  V30 4 1 4 5
M  V30 5 1 5 6
M  V30 6 3 6 7
M  V30 7 2 5 8
M  V30 8 1 8 9
M  V30 9 2 9 10
M  V30 10 1 10 11
M  V30 11 1 11 12
M  V30 12 1 12 13
M  V30 13 2 13 14
M  V30 14 1 13 15
M  V30 15 1 15 16
M  V30 16 1 16 17
M  V30 17 1 17 18
M  V30 18 1 18 19
M  V30 19 2 19 20
M  V30 20 1 19 21
M  V30 21 1 21 22
M  V30 22 1 22 23
M  V30 23 2 23 24
M  V30 24 1 24 25
M  V30 25 1 25 26
M  V30 26 2 25 27
M  V30 27 1 27 28
M  V30 28 2 28 29
M  V30 29 1 29 30
M  V30 30 3 30 31
M  V30 31 1 27 32
M  V30 32 3 32 33
M  V30 33 1 8 34
M  V30 34 1 10 3
M  V30 35 1 29 23
M  V30 36 1 4 35
M  V30 37 1 12 36
M  V30 38 1 12 37
M  V30 39 1 15 38
M  V30 40 1 16 39
M  V30 41 1 16 40
M  V30 42 1 17 41
M  V30 43 1 17 42
M  V30 44 1 18 43
M  V30 45 1 21 44
M  V30 46 1 21 45
M  V30 47 1 26 46
M  V30 48 1 26 47
M  V30 49 1 28 48
M  V30 50 1 34 49
M  V30 51 1 34 50
M  V30 END BOND
M  V30 END CTAB
M  END
