
     RDKit          3D

  0  0  0  0  0  0  0  0  0  0999 V3000
M  V30 BEGIN CTAB
M  V30 COUNTS 45 47 0 0 0
M  V30 BEGIN ATOM
M  V30 1 N -2.72028 -3.82527 1.6411 0
M  V30 2 C -2.29682 -2.5682 1.06858 0
M  V30 3 N -2.77564 -2.11084 -0.0281347 0
M  V30 4 C -2.34989 -0.827553 -0.585081 0
M  V30 5 N -1.08748 -0.353924 -0.0828491 0
M  V30 6 C -0.389751 0.597863 -0.864206 0
M  V30 7 C 1.05903 0.815072 -0.753716 0
M  V30 8 C 1.89129 -0.394695 -1.15095 0
M  V30 9 O 3.20465 -0.143168 -1.09896 0
M  V30 10 C 4.21261 0.21162 -0.318469 0
M  V30 11 C 5.4847 0.3127 -0.920822 0
M  V30 12 C 6.60878 0.663868 -0.247554 0
M  V30 13 C 6.55401 0.942785 1.07912 0
M  V30 14 Cl 7.96987 1.39623 1.98552 0
M  V30 15 C 5.35229 0.866279 1.7332 0
M  V30 16 C 4.19955 0.502105 1.02565 0
M  V30 17 C -0.622824 -0.856701 1.15673 0
M  V30 18 N 0.426799 -0.226155 1.91125 0
M  V30 19 N -1.20732 -1.89845 1.6545 0
M  V30 20 C -3.47035 0.0996626 -0.543318 0
M  V30 21 C -4.62565 -0.28715 -1.2293 0
M  V30 22 C -5.76324 0.482136 -1.25151 0
M  V30 23 C -5.77286 1.68716 -0.571507 0
M  V30 24 F -6.91635 2.43222 -0.609151 0
M  V30 25 C -4.66264 2.08209 0.10084 0
M  V30 26 C -3.51471 1.29315 0.116727 0
M  V30 27 H -1.98248 -4.5355 1.8136 0
M  V30 28 H -3.72408 -3.96365 1.85323 0
M  V30 29 H -2.17707 -1.04236 -1.69847 0
M  V30 30 H -0.586987 0.323652 -1.96786 0
M  V30 31 H -0.913495 1.58841 -0.768983 0
M  V30 32 H 1.46609 1.22218 0.168851 0
M  V30 33 H 1.30575 1.62687 -1.52649 0
M  V30 34 H 1.58143 -0.708263 -2.2046 0
M  V30 35 H 1.60885 -1.29036 -0.549594 0
M  V30 36 H 5.53825 0.0917871 -1.97469 0
M  V30 37 H 7.57005 0.721626 -0.784808 0
M  V30 38 H 5.31509 1.08791 2.78556 0
M  V30 39 H 3.26583 0.444002 1.53497 0
M  V30 40 H 1.28754 -0.831028 2.0212 0
M  V30 41 H 0.362821 0.715898 2.31008 0
M  V30 42 H -4.65388 -1.22664 -1.77314 0
M  V30 43 H -6.64056 0.172889 -1.78065 0
M  V30 44 H -4.7094 3.03855 0.624194 0
M  V30 45 H -2.70149 1.67118 0.67813 0
M  V30 END ATOM
M  V30 BEGIN BOND
M  V30 1 1 1 2
M  V30 2 2 2 3
M  V30 3 1 3 4
M  V30 4 1 4 5
M  V30 5 1 5 6
M  V30 6 1 6 7
M  V30 7 1 7 8
M  V30 8 1 8 9
M  V30 9 1 9 10
M  V30 10 2 10 11
M  V30 11 1 11 12
M  V30 12 2 12 13
M  V30 13 1 13 14
M  V30 14 1 13 15
M  V30 15 2 15 16
M  V30 16 1 5 17
M  V30 17 1 17 18
M  V30 18 2 17 19
M  V30 19 1 4 20
M  V30 20 2 20 21
M  V30 21 1 21 22
M  V30 22 2 22 23
M  V30 23 1 23 24
M  V30 24 1 23 25
M  V30 25 2 25 26
M  V30 26 1 19 2
M  V30 27 1 26 20
M  V30 28 1 16 10
M  V30 29 1 1 27
M  V30 30 1 1 28
M  V30 31 1 4 29
M  V30 32 1 6 30
M  V30 33 1 6 31
M  V30 34 1 7 32
M  V30 35 1 7 33
M  V30 36 1 8 34
M  V30 37 1 8 35
M  V30 38 1 11 36
M  V30 39 1 12 37
M  V30 40 1 15 38
M  V30 41 1 16 39
M  V30 42 1 18 40
M  V30 43 1 18 41
M  V30 44 1 21 42
M  V30 45 1 22 43
M  V30 46 1 25 44
M  V30 47 1 26 45
M  V30 END BOND
M  V30 END CTAB
M  END
