
     RDKit          3D

  0  0  0  0  0  0  0  0  0  0999 V3000
M  V30 BEGIN CTAB
M  V30 COUNTS 29 29 0 0 0
M  V30 BEGIN ATOM
M  V30 1 C 4.11251 0.337233 -0.14024 0
M  V30 2 C 3.02114 -0.346103 -0.94238 0
M  V30 3 O 1.77456 -0.292815 -0.275419 0
M  V30 4 C 1.54126 -0.834737 0.969182 0
M  V30 5 O 2.52824 -1.41356 1.51685 0
M  V30 6 C 0.271318 -0.797395 1.69697 0
M  V30 7 C -0.837714 -0.208983 0.92767 0
M  V30 8 C -1.43518 -0.973044 -0.0500932 0
M  V30 9 N -1.07036 -2.31238 -0.359868 0
M  V30 10 C -2.47955 -0.437482 -0.803431 0
M  V30 11 C -2.89274 0.851074 -0.549684 0
M  V30 12 C -2.28557 1.62116 0.442099 0
M  V30 13 C -1.25364 1.09514 1.1871 0
M  V30 14 C -0.64501 1.89699 2.20403 0
M  V30 15 N -0.164698 2.54892 3.03988 0
M  V30 16 N -3.93742 1.45748 -1.2718 0
M  V30 17 H 3.74672 1.29235 0.305045 0
M  V30 18 H 4.58952 -0.319537 0.602651 0
M  V30 19 H 4.91183 0.63197 -0.863204 0
M  V30 20 H 3.35035 -1.35067 -1.21662 0
M  V30 21 H 2.91039 0.243702 -1.88611 0
M  V30 22 H 0.00713865 -1.82356 2.0043 0
M  V30 23 H 0.402108 -0.187617 2.61637 0
M  V30 24 H -0.495708 -2.62833 -1.14314 0
M  V30 25 H -1.44682 -3.04625 0.30879 0
M  V30 26 H -2.97102 -1.00589 -1.57973 0
M  V30 27 H -2.59759 2.6335 0.654314 0
M  V30 28 H -3.88868 1.5277 -2.31863 0
M  V30 29 H -4.7654 1.84113 -0.785559 0
M  V30 END ATOM
M  V30 BEGIN BOND
M  V30 1 1 1 2
M  V30 2 1 2 3
M  V30 3 1 3 4
M  V30 4 2 4 5
M  V30 5 1 4 6
M  V30 6 1 6 7
M  V30 7 2 7 8
M  V30 8 1 8 9
M  V30 9 1 8 10
M  V30 10 2 10 11
M  V30 11 1 11 12
M  V30 12 2 12 13
M  V30 13 1 13 14
M  V30 14 3 14 15
M  V30 15 1 11 16
M  V30 16 1 13 7
M  V30 17 1 1 17
M  V30 18 1 1 18
M  V30 19 1 1 19
M  V30 20 1 2 20
M  V30 21 1 2 21
M  V30 22 1 6 22
M  V30 23 1 6 23
M  V30 24 1 9 24
M  V30 25 1 9 25
M  V30 26 1 10 26
M  V30 27 1 12 27
M  V30 28 1 16 28
M  V30 29 1 16 29
M  V30 END BOND
M  V30 END CTAB
M  END
