
     RDKit          3D

  0  0  0  0  0  0  0  0  0  0999 V3000
M  V30 BEGIN CTAB
M  V30 COUNTS 51 54 0 0 0
M  V30 BEGIN ATOM
M  V30 1 C -6.47833 -2.13517 1.2738 0
M  V30 2 C -5.11482 -1.55148 1.07263 0
M  V30 3 C -4.10026 -1.76689 1.97696 0
M  V30 4 C -2.85056 -1.22812 1.78659 0
M  V30 5 C -2.54806 -0.434535 0.664795 0
M  V30 6 C -3.5861 -0.248288 -0.205867 0
M  V30 7 C -4.84596 -0.776458 -0.0378524 0
M  V30 8 S -6.07456 -0.457106 -1.22783 0
M  V30 9 O -5.51854 0.460983 -2.26715 0
M  V30 10 O -6.53819 -1.70901 -1.90976 0
M  V30 11 N -7.3835 0.357351 -0.450934 0
M  V30 12 C -1.1927 0.047053 0.507072 0
M  V30 13 N -0.137127 -0.82285 0.524466 0
M  V30 14 N 1.09115 -0.39825 0.390935 0
M  V30 15 C 1.47855 0.873347 0.22736 0
M  V30 16 C 0.440095 1.81107 0.202778 0
M  V30 17 C -0.89635 1.36967 0.346424 0
M  V30 18 C -1.88823 2.35015 0.332137 0
M  V30 19 C -1.63993 3.69665 0.185166 0
M  V30 20 C -0.34662 4.10303 0.0454409 0
M  V30 21 C 0.666812 3.1574 0.0567792 0
M  V30 22 N 2.81061 1.27538 0.119633 0
M  V30 23 C 3.94305 0.396385 0.0978683 0
M  V30 24 C 5.1917 0.926393 0.489082 0
M  V30 25 C 6.32532 0.155668 0.470605 0
M  V30 26 C 6.31484 -1.16229 0.0752658 0
M  V30 27 C 5.1077 -1.6869 -0.307149 0
M  V30 28 C 3.93555 -0.907719 -0.293787 0
M  V30 29 S 7.75179 -2.15131 0.0493316 0
M  V30 30 O 7.383 -3.60618 0.253448 0
M  V30 31 O 8.73537 -1.73629 1.10736 0
M  V30 32 N 8.56439 -2.06233 -1.47919 0
M  V30 33 H -6.73182 -2.71099 0.365789 0
M  V30 34 H -6.40343 -2.8642 2.11554 0
M  V30 35 H -7.22306 -1.37852 1.54193 0
M  V30 36 H -4.33537 -2.37935 2.84184 0
M  V30 37 H -2.04981 -1.38628 2.4813 0
M  V30 38 H -3.38712 0.353091 -1.09073 0
M  V30 39 H -7.81298 1.00831 -1.14529 0
M  V30 40 H -7.05696 0.912599 0.371853 0
M  V30 41 H -2.92068 2.05735 0.46392 0
M  V30 42 H -2.47177 4.40084 0.183573 0
M  V30 43 H -0.0826438 5.15044 -0.0752722 0
M  V30 44 H 1.68515 3.50801 -0.0588632 0
M  V30 45 H 3.01324 2.3236 0.0495074 0
M  V30 46 H 5.21347 1.95707 0.800799 0
M  V30 47 H 7.30284 0.547859 0.770104 0
M  V30 48 H 5.0568 -2.70416 -0.62037 0
M  V30 49 H 3.01103 -1.37131 -0.625917 0
M  V30 50 H 8.59522 -1.04074 -1.74198 0
M  V30 51 H 7.99783 -2.52298 -2.23187 0
M  V30 END ATOM
M  V30 BEGIN BOND
M  V30 1 1 1 2
M  V30 2 2 2 3
M  V30 3 1 3 4
M  V30 4 2 4 5
M  V30 5 1 5 6
M  V30 6 2 6 7
M  V30 7 1 7 8
M  V30 8 2 8 9
M  V30 9 2 8 10
M  V30 10 1 8 11
M  V30 11 1 5 12
M  V30 12 2 12 13
M  V30 13 1 13 14
M  V30 14 2 14 15
M  V30 15 1 15 16
M  V30 16 2 16 17
M  V30 17 1 17 18
M  V30 18 2 18 19
M  V30 19 1 19 20
M  V30 20 2 20 21
M  V30 21 1 15 22
M  V30 22 1 22 23
M  V30 23 2 23 24
M  V30 24 1 24 25
M  V30 25 2 25 26
M  V30 26 1 26 27
M  V30 27 2 27 28
M  V30 28 1 26 29
M  V30 29 2 29 30
M  V30 30 2 29 31
M  V30 31 1 29 32
M  V30 32 1 7 2
M  V30 33 1 17 12
M  V30 34 1 28 23
M  V30 35 1 21 16
M  V30 36 1 1 33
M  V30 37 1 1 34
M  V30 38 1 1 35
M  V30 39 1 3 36
M  V30 40 1 4 37
M  V30 41 1 6 38
M  V30 42 1 11 39
M  V30 43 1 11 40
M  V30 44 1 18 41
M  V30 45 1 19 42
M  V30 46 1 20 43
M  V30 47 1 21 44
M  V30 48 1 22 45
M  V30 49 1 24 46
M  V30 50 1 25 47
M  V30 51 1 27 48
M  V30 52 1 28 49
M  V30 53 1 32 50
M  V30 54 1 32 51
M  V30 END BOND
M  V30 END CTAB
M  END
