
     RDKit          3D

  0  0  0  0  0  0  0  0  0  0999 V3000
M  V30 BEGIN CTAB
M  V30 COUNTS 22 22 0 0 0
M  V30 BEGIN ATOM
M  V30 1 N 4.26475 -0.185834 1.15868 0
M  V30 2 N 3.4335 -0.508608 0.090675 0
M  V30 3 C 2.11275 -0.0194886 0.0432496 0
M  V30 4 O 1.70211 0.70733 0.974645 0
M  V30 5 C 1.17817 -0.329047 -1.06966 0
M  V30 6 C -0.154149 0.342901 -0.82359 0
M  V30 7 C -0.395622 1.61299 -1.28452 0
M  V30 8 S -1.99771 1.8757 -0.74335 0
M  V30 9 C -2.25748 0.376055 0.0242936 0
M  V30 10 N -1.10914 -0.247688 -0.171623 0
M  V30 11 C -3.43176 -0.181204 0.751519 0
M  V30 12 N -4.31063 -0.891727 -0.183226 0
M  V30 13 H 4.72197 0.744744 1.035 0
M  V30 14 H 5.03231 -0.891838 1.21143 0
M  V30 15 H 3.80924 -1.13044 -0.690451 0
M  V30 16 H 1.56214 0.025821 -2.03163 0
M  V30 17 H 1.00048 -1.41491 -1.17462 0
M  V30 18 H 0.289607 2.26609 -1.85347 0
M  V30 19 H -4.0301 0.69964 1.09459 0
M  V30 20 H -3.14238 -0.844168 1.56538 0
M  V30 21 H -3.78291 -1.74844 -0.469637 0
M  V30 22 H -4.49515 -0.257874 -1.01365 0
M  V30 END ATOM
M  V30 BEGIN BOND
M  V30 1 1 1 2
M  V30 2 1 2 3
M  V30 3 2 3 4
M  V30 4 1 3 5
M  V30 5 1 5 6
M  V30 6 2 6 7
M  V30 7 1 7 8
M  V30 8 1 8 9
M  V30 9 2 9 10
M  V30 10 1 9 11
M  V30 11 1 11 12
M  V30 12 1 10 6
M  V30 13 1 1 13
M  V30 14 1 1 14
M  V30 15 1 2 15
M  V30 16 1 5 16
M  V30 17 1 5 17
M  V30 18 1 7 18
M  V30 19 1 11 19
M  V30 20 1 11 20
M  V30 21 1 12 21
M  V30 22 1 12 22
M  V30 END BOND
M  V30 END CTAB
M  END
