
     RDKit          3D

  0  0  0  0  0  0  0  0  0  0999 V3000
M  V30 BEGIN CTAB
M  V30 COUNTS 33 33 0 0 0
M  V30 BEGIN ATOM
M  V30 1 C -3.07326 1.11155 -0.787941 0
M  V30 2 C -2.85055 0.29524 0.439613 0
M  V30 3 C -1.43162 -0.154302 0.630456 0
M  V30 4 C -0.450757 0.957514 0.743555 0
M  V30 5 C 0.596 0.924779 -0.376569 0
M  V30 6 C 1.36157 -0.386051 -0.346965 0
M  V30 7 C 0.438411 -1.53754 -0.0824512 0
M  V30 8 C -0.970258 -1.08532 -0.480156 0
M  V30 9 N 2.40284 -0.246389 0.64282 0
M  V30 10 S 3.95102 -0.344325 -0.152493 0
M  V30 11 O 3.85719 -1.17734 -1.39955 0
M  V30 12 O 4.991 -0.908755 0.753314 0
M  V30 13 N 4.46171 1.25273 -0.639367 0
M  V30 14 N -3.70628 -0.875329 0.376251 0
M  V30 15 H -2.61538 0.686936 -1.70745 0
M  V30 16 H -2.83192 2.19522 -0.658951 0
M  V30 17 H -4.18404 1.09956 -0.992966 0
M  V30 18 H -3.13272 0.897318 1.31593 0
M  V30 19 H -1.40211 -0.757582 1.56506 0
M  V30 20 H -0.872523 1.96463 0.752318 0
M  V30 21 H 0.157084 0.870308 1.69179 0
M  V30 22 H 1.30982 1.74196 -0.151188 0
M  V30 23 H 0.165013 1.12577 -1.35589 0
M  V30 24 H 1.80038 -0.518837 -1.35092 0
M  V30 25 H 0.368224 -1.81214 0.989023 0
M  V30 26 H 0.693228 -2.44937 -0.649081 0
M  V30 27 H -1.5821 -2.02746 -0.489025 0
M  V30 28 H -0.917651 -0.602309 -1.45581 0
M  V30 29 H 2.32952 -0.956414 1.40636 0
M  V30 30 H 4.16054 1.95766 0.0738362 0
M  V30 31 H 4.02734 1.5235 -1.54527 0
M  V30 32 H -3.35695 -1.56443 1.06298 0
M  V30 33 H -3.69278 -1.20075 -0.610445 0
M  V30 END ATOM
M  V30 BEGIN BOND
M  V30 1 1 1 2
M  V30 2 1 2 3
M  V30 3 1 3 4
M  V30 4 1 4 5
M  V30 5 1 5 6
M  V30 6 1 6 7
M  V30 7 1 7 8
M  V30 8 1 6 9
M  V30 9 1 9 10
M  V30 10 2 10 11
M  V30 11 2 10 12
M  V30 12 1 10 13
M  V30 13 1 2 14
M  V30 14 1 8 3
M  V30 15 1 1 15
M  V30 16 1 1 16
M  V30 17 1 1 17
M  V30 18 1 2 18
M  V30 19 1 3 19
M  V30 20 1 4 20
M  V30 21 1 4 21
M  V30 22 1 5 22
M  V30 23 1 5 23
M  V30 24 1 6 24
M  V30 25 1 7 25
M  V30 26 1 7 26
M  V30 27 1 8 27
M  V30 28 1 8 28
M  V30 29 1 9 29
M  V30 30 1 13 30
M  V30 31 1 13 31
M  V30 32 1 14 32
M  V30 33 1 14 33
M  V30 END BOND
M  V30 END CTAB
M  END
