
     RDKit          3D

  0  0  0  0  0  0  0  0  0  0999 V3000
M  V30 BEGIN CTAB
M  V30 COUNTS 31 32 0 0 0
M  V30 BEGIN ATOM
M  V30 1 N 4.9781 0.733951 -0.0447674 0
M  V30 2 C 4.81718 -0.699793 0.103402 0
M  V30 3 C 3.38145 -0.955979 0.399399 0
M  V30 4 N 2.83294 -2.1681 0.603363 0
M  V30 5 N 1.53983 -2.02223 0.839233 0
M  V30 6 N 1.2409 -0.748557 0.792625 0
M  V30 7 C 2.341 -0.0551766 0.525285 0
M  V30 8 C -0.0891488 -0.207457 1.00336 0
M  V30 9 C -0.754854 -0.166054 -0.372743 0
M  V30 10 C -2.12709 0.371797 -0.287191 0
M  V30 11 C -3.12637 -0.431151 0.256716 0
M  V30 12 C -4.40512 0.0722264 0.335516 0
M  V30 13 C -4.6768 1.3482 -0.119083 0
M  V30 14 C -3.70317 2.16512 -0.662964 0
M  V30 15 C -2.42832 1.64274 -0.733235 0
M  V30 16 N -0.742676 -1.5279 -0.8766 0
M  V30 17 H 4.46895 1.07456 -0.865823 0
M  V30 18 H 5.94277 1.05737 0.0673005 0
M  V30 19 H 5.48592 -1.12117 0.859228 0
M  V30 20 H 5.02098 -1.23274 -0.867937 0
M  V30 21 H 2.46318 1.03312 0.413118 0
M  V30 22 H -0.0293025 0.837103 1.4077 0
M  V30 23 H -0.719898 -0.866745 1.62895 0
M  V30 24 H -0.135345 0.5154 -0.993236 0
M  V30 25 H -2.86822 -1.43071 0.602837 0
M  V30 26 H -5.20407 -0.527114 0.753207 0
M  V30 27 H -5.68761 1.74938 -0.0581419 0
M  V30 28 H -3.92219 3.1762 -1.02236 0
M  V30 29 H -1.63651 2.26494 -1.15854 0
M  V30 30 H -0.862641 -2.22939 -0.119999 0
M  V30 31 H -1.39385 -1.65185 -1.67284 0
M  V30 END ATOM
M  V30 BEGIN BOND
M  V30 1 1 1 2
M  V30 2 1 2 3
M  V30 3 1 3 4
M  V30 4 2 4 5
M  V30 5 1 5 6
M  V30 6 1 6 7
M  V30 7 1 6 8
M  V30 8 1 8 9
M  V30 9 1 9 10
M  V30 10 2 10 11
M  V30 11 1 11 12
M  V30 12 2 12 13
M  V30 13 1 13 14
M  V30 14 2 14 15
M  V30 15 1 9 16
M  V30 16 2 7 3
M  V30 17 1 15 10
M  V30 18 1 1 17
M  V30 19 1 1 18
M  V30 20 1 2 19
M  V30 21 1 2 20
M  V30 22 1 7 21
M  V30 23 1 8 22
M  V30 24 1 8 23
M  V30 25 1 9 24
M  V30 26 1 11 25
M  V30 27 1 12 26
M  V30 28 1 13 27
M  V30 29 1 14 28
M  V30 30 1 15 29
M  V30 31 1 16 30
M  V30 32 1 16 31
M  V30 END BOND
M  V30 END CTAB
M  END
