
     RDKit          3D

  0  0  0  0  0  0  0  0  0  0999 V3000
M  V30 BEGIN CTAB
M  V30 COUNTS 41 43 0 0 0
M  V30 BEGIN ATOM
M  V30 1 F 5.43599 -2.67493 -3.5611 0
M  V30 2 C 4.96595 -2.08799 -2.43973 0
M  V30 3 C 5.48154 -2.52632 -1.23215 0
M  V30 4 C 5.03485 -1.96005 -0.0614412 0
M  V30 5 C 4.06492 -0.942608 -0.0417297 0
M  V30 6 C 3.59152 -0.550002 -1.27429 0
M  V30 7 C 4.01551 -1.09588 -2.48111 0
M  V30 8 N 3.68741 -0.420643 1.20104 0
M  V30 9 C 2.6002 0.377645 1.54886 0
M  V30 10 N 1.66449 0.80273 0.694029 0
M  V30 11 C 0.628512 1.56916 1.05023 0
M  V30 12 C -0.414665 2.04466 0.108496 0
M  V30 13 O -1.45554 1.07906 0.115581 0
M  V30 14 C -2.59638 1.20549 -0.655556 0
M  V30 15 O -2.70437 2.2087 -1.3802 0
M  V30 16 C -3.63815 0.194563 -0.619231 0
M  V30 17 C -3.5302 -0.923034 0.180555 0
M  V30 18 C -4.55506 -1.85249 0.173457 0
M  V30 19 C -5.67667 -1.71104 -0.595969 0
M  V30 20 C -5.77766 -0.588751 -1.39463 0
M  V30 21 C -4.76955 0.347377 -1.40203 0
M  V30 22 N -4.93916 1.49177 -2.25662 0
M  V30 23 Cl -7.21975 -0.421735 -2.37415 0
M  V30 24 N 0.525267 1.93021 2.33934 0
M  V30 25 C 1.42724 1.54195 3.25805 0
M  V30 26 N 2.44262 0.778511 2.855 0
M  V30 27 N 1.24831 1.96538 4.6012 0
M  V30 28 H 6.23444 -3.31402 -1.22347 0
M  V30 29 H 5.43147 -2.29758 0.898465 0
M  V30 30 H 2.85553 0.230915 -1.32478 0
M  V30 31 H 3.6359 -0.778717 -3.43568 0
M  V30 32 H 4.33893 -0.663118 2.02739 0
M  V30 33 H -0.0094288 2.16806 -0.923436 0
M  V30 34 H -0.818294 3.001 0.497066 0
M  V30 35 H -2.65335 -1.08225 0.814037 0
M  V30 36 H -4.46649 -2.72875 0.802891 0
M  V30 37 H -6.46738 -2.44905 -0.587707 0
M  V30 38 H -4.80659 1.40142 -3.28499 0
M  V30 39 H -5.1941 2.43178 -1.89561 0
M  V30 40 H 0.71268 1.41453 5.3134 0
M  V30 41 H 1.66947 2.88408 4.92478 0
M  V30 END ATOM
M  V30 BEGIN BOND
M  V30 1 1 1 2
M  V30 2 2 2 3
M  V30 3 1 3 4
M  V30 4 2 4 5
M  V30 5 1 5 6
M  V30 6 2 6 7
M  V30 7 1 5 8
M  V30 8 1 8 9
M  V30 9 2 9 10
M  V30 10 1 10 11
M  V30 11 1 11 12
M  V30 12 1 12 13
M  V30 13 1 13 14
M  V30 14 2 14 15
M  V30 15 1 14 16
M  V30 16 2 16 17
M  V30 17 1 17 18
M  V30 18 2 18 19
M  V30 19 1 19 20
M  V30 20 2 20 21
M  V30 21 1 21 22
M  V30 22 1 20 23
M  V30 23 2 11 24
M  V30 24 1 24 25
M  V30 25 2 25 26
M  V30 26 1 25 27
M  V30 27 1 7 2
M  V30 28 1 26 9
M  V30 29 1 21 16
M  V30 30 1 3 28
M  V30 31 1 4 29
M  V30 32 1 6 30
M  V30 33 1 7 31
M  V30 34 1 8 32
M  V30 35 1 12 33
M  V30 36 1 12 34
M  V30 37 1 17 35
M  V30 38 1 18 36
M  V30 39 1 19 37
M  V30 40 1 22 38
M  V30 41 1 22 39
M  V30 42 1 27 40
M  V30 43 1 27 41
M  V30 END BOND
M  V30 END CTAB
M  END
