
     RDKit          3D

  0  0  0  0  0  0  0  0  0  0999 V3000
M  V30 BEGIN CTAB
M  V30 COUNTS 17 17 0 0 0
M  V30 BEGIN ATOM
M  V30 1 N -2.67912 -2.44099 -0.91414 0
M  V30 2 C -1.83277 -1.69683 -0.640166 0
M  V30 3 C -0.790984 -0.764006 -0.288892 0
M  V30 4 C 0.534977 -1.08606 -0.496288 0
M  V30 5 C 1.54836 -0.202141 -0.164763 0
M  V30 6 N 2.91272 -0.523997 -0.374061 0
M  V30 7 C 1.15163 1.0068 0.379751 0
M  V30 8 C -0.169293 1.33069 0.587689 0
M  V30 9 C -1.1724 0.444368 0.254591 0
M  V30 10 N -2.53064 0.798727 0.47765 0
M  V30 11 Cl -0.583515 2.90204 1.29025 0
M  V30 12 H 0.844695 -2.04371 -0.927382 0
M  V30 13 H 3.32368 -0.36967 -1.31469 0
M  V30 14 H 3.53157 -0.908677 0.364618 0
M  V30 15 H 1.96922 1.6927 0.635421 0
M  V30 16 H -2.83845 1.13481 1.43291 0
M  V30 17 H -3.21969 0.725943 -0.302499 0
M  V30 END ATOM
M  V30 BEGIN BOND
M  V30 1 3 1 2
M  V30 2 1 2 3
M  V30 3 2 3 4
M  V30 4 1 4 5
M  V30 5 1 5 6
M  V30 6 2 5 7
M  V30 7 1 7 8
M  V30 8 2 8 9
M  V30 9 1 9 10
M  V30 10 1 8 11
M  V30 11 1 9 3
M  V30 12 1 4 12
M  V30 13 1 6 13
M  V30 14 1 6 14
M  V30 15 1 7 15
M  V30 16 1 10 16
M  V30 17 1 10 17
M  V30 END BOND
M  V30 END CTAB
M  END
