
     RDKit          3D

  0  0  0  0  0  0  0  0  0  0999 V3000
M  V30 BEGIN CTAB
M  V30 COUNTS 53 56 0 0 0
M  V30 BEGIN ATOM
M  V30 1 C 2.03242 -0.157327 4.24776 0
M  V30 2 C 1.553 -0.257359 2.83243 0
M  V30 3 C 0.403752 -0.898037 2.379 0
M  V30 4 N 0.298175 -0.778891 1.03172 0
M  V30 5 C 1.36318 -0.0706383 0.611949 0
M  V30 6 C 2.13861 0.255075 1.69946 0
M  V30 7 C 3.33777 1.01813 1.47657 0
M  V30 8 O 4.0615 1.37673 2.44144 0
M  V30 9 C 3.78096 1.41789 0.123803 0
M  V30 10 C 3.0884 0.745765 -0.987089 0
M  V30 11 C 3.1639 1.6189 -2.24264 0
M  V30 12 C 3.89853 -0.515092 -1.33497 0
M  V30 13 C 1.68792 0.317101 -0.775279 0
M  V30 14 C -0.776039 -1.3332 0.279558 0
M  V30 15 C -2.04363 -0.791662 0.302959 0
M  V30 16 S -2.43318 0.64301 1.27662 0
M  V30 17 C -2.17172 2.17705 0.35077 0
M  V30 18 C -2.52518 3.34268 1.24803 0
M  V30 19 N -2.32742 4.59604 0.538145 0
M  V30 20 C -3.02375 -1.39075 -0.454456 0
M  V30 21 N -4.29019 -0.938767 -0.498883 0
M  V30 22 C -5.22828 -1.54541 -1.24908 0
M  V30 23 N -4.95842 -2.63087 -1.99324 0
M  V30 24 C -3.71398 -3.13955 -1.99877 0
M  V30 25 N -3.41621 -4.28317 -2.7787 0
M  V30 26 C -2.75085 -2.51887 -1.2302 0
M  V30 27 C -1.48793 -3.04965 -1.24683 0
M  V30 28 C -0.495095 -2.45272 -0.487168 0
M  V30 29 H 1.16971 -0.220044 4.91075 0
M  V30 30 H 2.68365 -1.04641 4.48812 0
M  V30 31 H 2.6505 0.74954 4.37011 0
M  V30 32 H -0.27016 -1.40289 3.06044 0
M  V30 33 H 3.66888 2.51875 0.0469689 0
M  V30 34 H 4.89129 1.22347 0.0927972 0
M  V30 35 H 3.05663 2.69812 -1.98347 0
M  V30 36 H 2.39488 1.29404 -2.97621 0
M  V30 37 H 4.14626 1.51537 -2.73775 0
M  V30 38 H 3.64037 -0.880605 -2.34901 0
M  V30 39 H 4.9563 -0.236831 -1.27746 0
M  V30 40 H 3.69133 -1.27238 -0.551147 0
M  V30 41 H 1.01589 1.17212 -1.03745 0
M  V30 42 H 1.41791 -0.502337 -1.47336 0
M  V30 43 H -1.08186 2.27239 0.129015 0
M  V30 44 H -2.77641 2.2409 -0.55678 0
M  V30 45 H -3.58933 3.30929 1.57405 0
M  V30 46 H -1.86365 3.3904 2.14576 0
M  V30 47 H -2.37163 4.47297 -0.496589 0
M  V30 48 H -2.94419 5.35175 0.875755 0
M  V30 49 H -6.26758 -1.18681 -1.29493 0
M  V30 50 H -3.77505 -5.21175 -2.51875 0
M  V30 51 H -2.82626 -4.17093 -3.62293 0
M  V30 52 H -1.26846 -3.92533 -1.84666 0
M  V30 53 H 0.484696 -2.90922 -0.53418 0
M  V30 END ATOM
M  V30 BEGIN BOND
M  V30 1 1 1 2
M  V30 2 2 2 3
M  V30 3 1 3 4
M  V30 4 1 4 5
M  V30 5 2 5 6
M  V30 6 1 6 7
M  V30 7 2 7 8
M  V30 8 1 7 9
M  V30 9 1 9 10
M  V30 10 1 10 11
M  V30 11 1 10 12
M  V30 12 1 10 13
M  V30 13 1 4 14
M  V30 14 2 14 15
M  V30 15 1 15 16
M  V30 16 1 16 17
M  V30 17 1 17 18
M  V30 18 1 18 19
M  V30 19 1 15 20
M  V30 20 2 20 21
M  V30 21 1 21 22
M  V30 22 2 22 23
M  V30 23 1 23 24
M  V30 24 1 24 25
M  V30 25 2 24 26
M  V30 26 1 26 27
M  V30 27 2 27 28
M  V30 28 1 6 2
M  V30 29 1 28 14
M  V30 30 1 13 5
M  V30 31 1 26 20
M  V30 32 1 1 29
M  V30 33 1 1 30
M  V30 34 1 1 31
M  V30 35 1 3 32
M  V30 36 1 9 33
M  V30 37 1 9 34
M  V30 38 1 11 35
M  V30 39 1 11 36
M  V30 40 1 11 37
M  V30 41 1 12 38
M  V30 42 1 12 39
M  V30 43 1 12 40
M  V30 44 1 13 41
M  V30 45 1 13 42
M  V30 46 1 17 43
M  V30 47 1 17 44
M  V30 48 1 18 45
M  V30 49 1 18 46
M  V30 50 1 19 47
M  V30 51 1 19 48
M  V30 52 1 22 49
M  V30 53 1 25 50
M  V30 54 1 25 51
M  V30 55 1 27 52
M  V30 56 1 28 53
M  V30 END BOND
M  V30 END CTAB
M  END
