
     RDKit          3D

  0  0  0  0  0  0  0  0  0  0999 V3000
M  V30 BEGIN CTAB
M  V30 COUNTS 33 34 0 0 0
M  V30 BEGIN ATOM
M  V30 1 N -3.00477 -1.01445 1.64891 0
M  V30 2 C -3.00696 -0.113776 0.546921 0
M  V30 3 C -4.30734 -0.149395 -0.240726 0
M  V30 4 C -4.4103 0.75438 -1.41087 0
M  V30 5 C -5.22643 1.05336 -0.166088 0
M  V30 6 C -1.88174 -0.331367 -0.426005 0
M  V30 7 N -0.582289 -0.189831 0.154696 0
M  V30 8 C 0.555218 -0.368187 -0.648405 0
M  V30 9 O 0.456757 -0.65284 -1.88099 0
M  V30 10 C 1.92348 -0.233625 -0.0996927 0
M  V30 11 C 2.23354 0.0699008 1.20913 0
M  V30 12 C 3.60977 0.0947489 1.28167 0
M  V30 13 C 4.09265 -0.192578 0.0227995 0
M  V30 14 O 3.03947 -0.372579 -0.7311 0
M  V30 15 S 5.79196 -0.291271 -0.44888 0
M  V30 16 O 6.02746 0.681121 -1.56758 0
M  V30 17 O 6.07087 -1.66584 -1.00216 0
M  V30 18 N 6.77542 0.0283049 0.912327 0
M  V30 19 H -2.06771 -1.38966 1.89936 0
M  V30 20 H -3.51333 -0.655053 2.46549 0
M  V30 21 H -2.90905 0.919699 0.945609 0
M  V30 22 H -4.80785 -1.12464 -0.303827 0
M  V30 23 H -3.64553 1.50705 -1.63887 0
M  V30 24 H -4.96698 0.402873 -2.32426 0
M  V30 25 H -6.30794 0.911443 -0.289906 0
M  V30 26 H -4.87985 1.8588 0.500705 0
M  V30 27 H -1.93201 -1.38254 -0.838035 0
M  V30 28 H -2.01875 0.318967 -1.31526 0
M  V30 29 H -0.478166 0.0395695 1.14735 0
M  V30 30 H 1.48756 0.240746 1.96932 0
M  V30 31 H 4.18989 0.303268 2.17141 0
M  V30 32 H 6.25516 0.159057 1.79022 0
M  V30 33 H 7.43777 0.784343 0.670554 0
M  V30 END ATOM
M  V30 BEGIN BOND
M  V30 1 1 1 2
M  V30 2 1 2 3
M  V30 3 1 3 4
M  V30 4 1 4 5
M  V30 5 1 2 6
M  V30 6 1 6 7
M  V30 7 1 7 8
M  V30 8 2 8 9
M  V30 9 1 8 10
M  V30 10 2 10 11
M  V30 11 1 11 12
M  V30 12 2 12 13
M  V30 13 1 13 14
M  V30 14 1 13 15
M  V30 15 2 15 16
M  V30 16 2 15 17
M  V30 17 1 15 18
M  V30 18 1 5 3
M  V30 19 1 14 10
M  V30 20 1 1 19
M  V30 21 1 1 20
M  V30 22 1 2 21
M  V30 23 1 3 22
M  V30 24 1 4 23
M  V30 25 1 4 24
M  V30 26 1 5 25
M  V30 27 1 5 26
M  V30 28 1 6 27
M  V30 29 1 6 28
M  V30 30 1 7 29
M  V30 31 1 11 30
M  V30 32 1 12 31
M  V30 33 1 18 32
M  V30 34 1 18 33
M  V30 END BOND
M  V30 END CTAB
M  END
