
     RDKit          3D

  0  0  0  0  0  0  0  0  0  0999 V3000
M  V30 BEGIN CTAB
M  V30 COUNTS 47 51 0 0 0
M  V30 BEGIN ATOM
M  V30 1 N -2.15746 -4.67427 0.129197 0
M  V30 2 C -2.10706 -3.2667 0.0561949 0
M  V30 3 N -0.913217 -2.70529 -0.223288 0
M  V30 4 C -0.816129 -1.36872 -0.303574 0
M  V30 5 C -1.92475 -0.576702 -0.10273 0
M  V30 6 C -3.15751 -1.14264 0.185079 0
M  V30 7 N -3.19237 -2.48667 0.252611 0
M  V30 8 C -4.36697 -0.349026 0.408458 0 CFG=2
M  V30 9 C -4.69702 0.688435 -0.637701 0
M  V30 10 C -5.18527 1.57575 0.494268 0 CFG=1
M  V30 11 C -4.22739 0.797363 1.40585 0
M  V30 12 N -4.83133 2.97148 0.373887 0
M  V30 13 N 0.425144 -0.734416 -0.594817 0
M  V30 14 C 0.572257 0.677251 -0.747059 0
M  V30 15 C 1.86344 0.954004 -1.52432 0
M  V30 16 C 2.95726 0.421068 -0.667649 0
M  V30 17 C 2.83133 -0.910462 -0.248775 0
M  V30 18 C 1.60034 -1.58961 -0.738007 0
M  V30 19 N 3.89785 -1.19362 0.49936 0
M  V30 20 C 4.68841 -0.101821 0.570243 0
M  V30 21 C 4.12635 0.932152 -0.152714 0
M  V30 22 C 4.71677 2.16147 -0.253716 0
M  V30 23 C 5.93469 2.4254 0.382596 0
M  V30 24 C 6.51281 1.40745 1.1096 0
M  V30 25 C 5.90042 0.170498 1.20003 0
M  V30 26 H -2.11359 -5.15565 1.03743 0
M  V30 27 H -2.239 -5.22427 -0.736759 0
M  V30 28 H -1.85456 0.48067 -0.163737 0
M  V30 29 H -5.2432 -0.968166 0.621509 0
M  V30 30 H -5.47166 0.391262 -1.36953 0
M  V30 31 H -3.83197 1.16056 -1.12934 0
M  V30 32 H -6.24416 1.37044 0.689485 0
M  V30 33 H -3.22996 1.25013 1.46166 0
M  V30 34 H -4.65293 0.584161 2.40658 0
M  V30 35 H -5.62271 3.51159 -0.0180793 0
M  V30 36 H -3.93877 3.08765 -0.149133 0
M  V30 37 H -0.283795 1.19507 -1.22029 0
M  V30 38 H 0.762246 1.11278 0.275051 0
M  V30 39 H 1.97996 2.02125 -1.73923 0
M  V30 40 H 1.83634 0.30593 -2.42703 0
M  V30 41 H 1.73142 -1.7543 -1.82758 0
M  V30 42 H 1.44795 -2.58077 -0.275385 0
M  V30 43 H 4.07028 -2.12456 0.949734 0
M  V30 44 H 4.22815 2.91519 -0.829148 0
M  V30 45 H 6.41841 3.39628 0.313847 0
M  V30 46 H 7.46258 1.57141 1.62162 0
M  V30 47 H 6.33837 -0.629047 1.76134 0
M  V30 END ATOM
M  V30 BEGIN BOND
M  V30 1 1 1 2
M  V30 2 2 2 3
M  V30 3 1 3 4
M  V30 4 2 4 5
M  V30 5 1 5 6
M  V30 6 2 6 7
M  V30 7 1 6 8
M  V30 8 1 8 9
M  V30 9 1 9 10
M  V30 10 1 10 11
M  V30 11 1 10 12
M  V30 12 1 4 13
M  V30 13 1 13 14
M  V30 14 1 14 15
M  V30 15 1 15 16
M  V30 16 2 16 17
M  V30 17 1 17 18
M  V30 18 1 17 19
M  V30 19 1 19 20
M  V30 20 2 20 21
M  V30 21 1 21 22
M  V30 22 2 22 23
M  V30 23 1 23 24
M  V30 24 2 24 25
M  V30 25 1 7 2
M  V30 26 1 11 8
M  V30 27 1 18 13
M  V30 28 1 25 20
M  V30 29 1 21 16
M  V30 30 1 1 26
M  V30 31 1 1 27
M  V30 32 1 5 28
M  V30 33 1 8 29 CFG=1
M  V30 34 1 9 30
M  V30 35 1 9 31
M  V30 36 1 10 32 CFG=1
M  V30 37 1 11 33
M  V30 38 1 11 34
M  V30 39 1 12 35
M  V30 40 1 12 36
M  V30 41 1 14 37
M  V30 42 1 14 38
M  V30 43 1 15 39
M  V30 44 1 15 40
M  V30 45 1 18 41
M  V30 46 1 18 42
M  V30 47 1 19 43
M  V30 48 1 22 44
M  V30 49 1 23 45
M  V30 50 1 24 46
M  V30 51 1 25 47
M  V30 END BOND
M  V30 END CTAB
M  END
