
     RDKit          3D

  0  0  0  0  0  0  0  0  0  0999 V3000
M  V30 BEGIN CTAB
M  V30 COUNTS 29 29 0 0 0
M  V30 BEGIN ATOM
M  V30 1 C 5.44605 -0.669347 -0.237629 0
M  V30 2 N 4.27898 0.221796 -0.244046 0
M  V30 3 C 2.9805 -0.340316 -0.195858 0
M  V30 4 O 2.80966 -1.5822 -0.14792 0
M  V30 5 C 1.83323 0.563533 -0.203171 0
M  V30 6 C 0.621534 0.0735392 -0.159421 0
M  V30 7 C -0.578082 0.871797 -0.161831 0
M  V30 8 C -0.525505 2.24484 -0.212014 0
M  V30 9 C -1.70162 2.98941 -0.212999 0
M  V30 10 Cl -1.65007 4.74426 -0.276812 0
M  V30 11 C -2.88938 2.29446 -0.162313 0
M  V30 12 N -2.94806 0.957032 -0.113266 0
M  V30 13 C -1.81446 0.241015 -0.112378 0
M  V30 14 N -1.83221 -1.16877 -0.0615995 0
M  V30 15 C -2.91423 -1.86166 -0.0132138 0
M  V30 16 N -4.21449 -1.29936 -0.00492655 0
M  V30 17 N -2.76645 -3.29466 0.0347952 0
M  V30 18 H 5.15561 -1.62761 0.252524 0
M  V30 19 H 5.71109 -0.926734 -1.29289 0
M  V30 20 H 6.27784 -0.164491 0.278965 0
M  V30 21 H 4.43595 1.24733 -0.283966 0
M  V30 22 H 2.00013 1.63609 -0.245012 0
M  V30 23 H 0.544391 -1.01594 -0.118948 0
M  V30 24 H 0.39976 2.81019 -0.252346 0
M  V30 25 H -3.80536 2.89922 -0.163965 0
M  V30 26 H -4.64062 -1.04962 0.929015 0
M  V30 27 H -4.74823 -1.13173 -0.90065 0
M  V30 28 H -1.8582 -3.75173 0.212234 0
M  V30 29 H -3.60776 -3.91035 -0.114929 0
M  V30 END ATOM
M  V30 BEGIN BOND
M  V30 1 1 1 2
M  V30 2 1 2 3
M  V30 3 2 3 4
M  V30 4 1 3 5
M  V30 5 2 5 6
M  V30 6 1 6 7
M  V30 7 2 7 8
M  V30 8 1 8 9
M  V30 9 1 9 10
M  V30 10 2 9 11
M  V30 11 1 11 12
M  V30 12 2 12 13
M  V30 13 1 13 14
M  V30 14 2 14 15
M  V30 15 1 15 16
M  V30 16 1 15 17
M  V30 17 1 13 7
M  V30 18 1 1 18
M  V30 19 1 1 19
M  V30 20 1 1 20
M  V30 21 1 2 21
M  V30 22 1 5 22
M  V30 23 1 6 23
M  V30 24 1 8 24
M  V30 25 1 11 25
M  V30 26 1 16 26
M  V30 27 1 16 27
M  V30 28 1 17 28
M  V30 29 1 17 29
M  V30 END BOND
M  V30 END CTAB
M  END
