
     RDKit          3D

  0  0  0  0  0  0  0  0  0  0999 V3000
M  V30 BEGIN CTAB
M  V30 COUNTS 28 27 0 0 0
M  V30 BEGIN ATOM
M  V30 1 C 3.39112 0.401964 -0.167018 0 CFG=1
M  V30 2 N 3.80541 -0.45386 -1.26725 0
M  V30 3 C 2.0692 -0.156058 0.338501 0
M  V30 4 S 0.87412 -0.158838 -0.867171 0
M  V30 5 S -0.986739 -0.883917 -0.356302 0
M  V30 6 O -1.21512 -1.49648 0.9524 0
M  V30 7 O -1.15133 -1.96837 -1.37154 0
M  V30 8 C -1.98401 0.501809 -0.565137 0
M  V30 9 C -3.44941 0.377923 -0.319813 0 CFG=2
M  V30 10 N -4.00668 1.73722 -0.600749 0
M  V30 11 C -3.87551 0.0784655 1.04081 0
M  V30 12 O -3.87526 -1.21122 1.52489 0
M  V30 13 O -4.26127 0.979544 1.81779 0
M  V30 14 C 4.39291 0.3358 0.905639 0
M  V30 15 O 5.52672 -0.441749 0.810527 0
M  V30 16 O 4.24435 1.00223 1.96993 0
M  V30 17 H 3.28555 1.41626 -0.575507 0
M  V30 18 H 4.61374 -0.0508071 -1.79234 0
M  V30 19 H 3.00054 -0.620315 -1.881 0
M  V30 20 H 2.32097 -1.19322 0.710358 0
M  V30 21 H 1.86532 0.412822 1.29237 0
M  V30 22 H -1.88926 0.84799 -1.64147 0
M  V30 23 H -1.55437 1.35735 0.00770235 0
M  V30 24 H -3.90477 -0.285098 -1.08165 0
M  V30 25 H -3.40246 2.23896 -1.26636 0
M  V30 26 H -4.99405 1.63571 -0.923675 0
M  V30 27 H -4.72601 -1.74522 1.71323 0
M  V30 28 H 5.88631 -0.982884 1.59283 0
M  V30 END ATOM
M  V30 BEGIN BOND
M  V30 1 1 1 2
M  V30 2 1 1 3
M  V30 3 1 3 4
M  V30 4 1 4 5
M  V30 5 2 5 6
M  V30 6 2 5 7
M  V30 7 1 5 8
M  V30 8 1 8 9
M  V30 9 1 9 10
M  V30 10 1 9 11
M  V30 11 1 11 12
M  V30 12 2 11 13
M  V30 13 1 1 14
M  V30 14 1 14 15
M  V30 15 2 14 16
M  V30 16 1 1 17 CFG=3
M  V30 17 1 2 18
M  V30 18 1 2 19
M  V30 19 1 3 20
M  V30 20 1 3 21
M  V30 21 1 8 22
M  V30 22 1 8 23
M  V30 23 1 9 24 CFG=3
M  V30 24 1 10 25
M  V30 25 1 10 26
M  V30 26 1 12 27
M  V30 27 1 15 28
M  V30 END BOND
M  V30 END CTAB
M  END
