
     RDKit          3D

  0  0  0  0  0  0  0  0  0  0999 V3000
M  V30 BEGIN CTAB
M  V30 COUNTS 46 48 0 0 0
M  V30 BEGIN ATOM
M  V30 1 C 2.30992 -0.614514 1.93498 0
M  V30 2 C 1.61681 -0.687522 0.64243 0
M  V30 3 C 2.19664 -0.234806 -0.539711 0
M  V30 4 C 1.44199 -0.358941 -1.68836 0
M  V30 5 C 0.155357 -0.909852 -1.68633 0
M  V30 6 C -0.402726 -1.34982 -0.524107 0
M  V30 7 C -1.75605 -1.92807 -0.532905 0
M  V30 8 N -2.80067 -1.00093 -0.353654 0
M  V30 9 C -4.11576 -1.47399 -0.349036 0
M  V30 10 C -5.14462 -0.509408 0.180065 0
M  V30 11 C -4.5436 0.52991 1.07611 0
M  V30 12 N -5.56696 1.47466 1.45114 0
M  V30 13 C -3.49239 1.27108 0.294384 0
M  V30 14 C -2.5342 0.367431 -0.421031 0
M  V30 15 C 0.328309 -1.23724 0.63291 0
M  V30 16 C 3.55298 0.348245 -0.553748 0
M  V30 17 C 4.07061 0.778408 -1.74913 0
M  V30 18 C 5.34715 1.34541 -1.86504 0
M  V30 19 C 6.0852 1.46222 -0.721984 0
M  V30 20 C 5.52281 1.01502 0.461136 0
M  V30 21 N 6.33645 1.16018 1.62568 0
M  V30 22 N 4.30232 0.480662 0.527404 0
M  V30 23 H 2.54211 0.401468 2.29361 0
M  V30 24 H 3.19573 -1.28833 1.90726 0
M  V30 25 H 1.63047 -1.04607 2.7398 0
M  V30 26 H 1.82205 -0.0291236 -2.65457 0
M  V30 27 H -0.400086 -0.988688 -2.60321 0
M  V30 28 H -1.84536 -2.7545 0.223292 0
M  V30 29 H -1.88882 -2.42504 -1.53678 0
M  V30 30 H -4.17062 -2.38112 0.322073 0
M  V30 31 H -4.47173 -1.83706 -1.33602 0
M  V30 32 H -5.98016 -0.997303 0.705529 0
M  V30 33 H -5.57558 0.0222562 -0.698184 0
M  V30 34 H -4.10401 0.116533 1.99989 0
M  V30 35 H -6.2461 1.68844 0.710995 0
M  V30 36 H -5.96673 1.31673 2.38538 0
M  V30 37 H -2.97016 1.95554 1.02627 0
M  V30 38 H -4.01509 1.94683 -0.41469 0
M  V30 39 H -2.49415 0.688112 -1.50319 0
M  V30 40 H -1.51865 0.583769 -0.0277938 0
M  V30 41 H -0.110795 -1.58747 1.57083 0
M  V30 42 H 3.55369 0.721889 -2.69485 0
M  V30 43 H 5.74441 1.68169 -2.81818 0
M  V30 44 H 7.09227 1.89824 -0.748408 0
M  V30 45 H 6.7624 2.05972 1.90559 0
M  V30 46 H 6.5053 0.325336 2.21363 0
M  V30 END ATOM
M  V30 BEGIN BOND
M  V30 1 1 1 2
M  V30 2 2 2 3
M  V30 3 1 3 4
M  V30 4 2 4 5
M  V30 5 1 5 6
M  V30 6 1 6 7
M  V30 7 1 7 8
M  V30 8 1 8 9
M  V30 9 1 9 10
M  V30 10 1 10 11
M  V30 11 1 11 12
M  V30 12 1 11 13
M  V30 13 1 13 14
M  V30 14 2 6 15
M  V30 15 1 3 16
M  V30 16 2 16 17
M  V30 17 1 17 18
M  V30 18 2 18 19
M  V30 19 1 19 20
M  V30 20 1 20 21
M  V30 21 2 20 22
M  V30 22 1 15 2
M  V30 23 1 22 16
M  V30 24 1 14 8
M  V30 25 1 1 23
M  V30 26 1 1 24
M  V30 27 1 1 25
M  V30 28 1 4 26
M  V30 29 1 5 27
M  V30 30 1 7 28
M  V30 31 1 7 29
M  V30 32 1 9 30
M  V30 33 1 9 31
M  V30 34 1 10 32
M  V30 35 1 10 33
M  V30 36 1 11 34
M  V30 37 1 12 35
M  V30 38 1 12 36
M  V30 39 1 13 37
M  V30 40 1 13 38
M  V30 41 1 14 39
M  V30 42 1 14 40
M  V30 43 1 15 41
M  V30 44 1 17 42
M  V30 45 1 18 43
M  V30 46 1 19 44
M  V30 47 1 21 45
M  V30 48 1 21 46
M  V30 END BOND
M  V30 END CTAB
M  END
