
     RDKit          3D

  0  0  0  0  0  0  0  0  0  0999 V3000
M  V30 BEGIN CTAB
M  V30 COUNTS 21 21 0 0 0
M  V30 BEGIN ATOM
M  V30 1 N 3.60925 -0.531085 0.178298 0
M  V30 2 C 2.20506 -0.339216 -0.0268086 0
M  V30 3 C 1.55602 -0.994139 -1.05459 0
M  V30 4 C 0.212777 -0.821091 -1.26746 0
M  V30 5 C -0.582409 0.0194402 -0.469063 0
M  V30 6 C 0.0625994 0.666574 0.547867 0
M  V30 7 C 1.44842 0.479677 0.757044 0
M  V30 8 N -0.634579 1.5188 1.43014 0 CHG=1
M  V30 9 O -0.187309 1.6128 2.6116 0
M  V30 10 O -1.71784 2.22125 1.10732 0 CHG=-1
M  V30 11 S -2.28584 0.175157 -0.821888 0
M  V30 12 O -2.70317 1.48832 -1.34148 0
M  V30 13 O -2.62241 -0.838634 -1.9058 0
M  V30 14 N -3.22975 -0.245626 0.545857 0
M  V30 15 H 4.18075 0.292771 0.446839 0
M  V30 16 H 4.09209 -1.4431 0.0759969 0
M  V30 17 H 2.16422 -1.6467 -1.67705 0
M  V30 18 H -0.279751 -1.34035 -2.07656 0
M  V30 19 H 1.89734 1.02748 1.58301 0
M  V30 20 H -2.94009 -1.14183 0.991749 0
M  V30 21 H -4.24536 -0.160482 0.364982 0
M  V30 END ATOM
M  V30 BEGIN BOND
M  V30 1 1 1 2
M  V30 2 2 2 3
M  V30 3 1 3 4
M  V30 4 2 4 5
M  V30 5 1 5 6
M  V30 6 2 6 7
M  V30 7 1 6 8
M  V30 8 2 8 9
M  V30 9 1 8 10
M  V30 10 1 5 11
M  V30 11 2 11 12
M  V30 12 2 11 13
M  V30 13 1 11 14
M  V30 14 1 7 2
M  V30 15 1 1 15
M  V30 16 1 1 16
M  V30 17 1 3 17
M  V30 18 1 4 18
M  V30 19 1 7 19
M  V30 20 1 14 20
M  V30 21 1 14 21
M  V30 END BOND
M  V30 END CTAB
M  END
