
     RDKit          3D

  0  0  0  0  0  0  0  0  0  0999 V3000
M  V30 BEGIN CTAB
M  V30 COUNTS 35 35 0 0 0
M  V30 BEGIN ATOM
M  V30 1 N -1.8984 1.88642 -0.511687 0
M  V30 2 C -2.56925 1.31454 0.584734 0 CFG=2
M  V30 3 C -1.71828 0.312081 1.21841 0
M  V30 4 O -2.0783 -0.351475 2.22423 0
M  V30 5 N -0.430386 0.060422 0.695249 0
M  V30 6 C 0.429983 -0.918678 1.29556 0
M  V30 7 C 1.73767 -1.00921 0.571133 0
M  V30 8 C 2.09549 -1.80365 -0.483132 0
M  V30 9 C 3.34591 -1.6837 -0.946247 0
M  V30 10 C 4.16388 -0.777512 -0.328604 0
M  V30 11 S 3.15828 -0.121166 0.881122 0
M  V30 12 S 5.851 -0.404526 -0.718656 0
M  V30 13 O 6.72188 -0.741808 0.451154 0
M  V30 14 O 6.29711 -1.21216 -1.8892 0
M  V30 15 N 5.91055 1.26606 -1.12836 0
M  V30 16 C -3.90767 0.808081 0.142439 0
M  V30 17 C -4.7199 0.176654 1.21613 0
M  V30 18 C -3.78228 -0.144223 -1.02215 0
M  V30 19 H -1.59933 1.32247 -1.26773 0
M  V30 20 H -1.52577 2.78484 -0.342403 0
M  V30 21 H -2.71743 2.13321 1.35106 0
M  V30 22 H -0.0702435 0.578902 -0.140681 0
M  V30 23 H -0.0362653 -1.92504 1.31885 0
M  V30 24 H 0.670536 -0.621695 2.33843 0
M  V30 25 H 1.34909 -2.50732 -0.909678 0
M  V30 26 H 3.74672 -2.27802 -1.79846 0
M  V30 27 H 6.72026 1.52704 -1.7032 0
M  V30 28 H 5.69224 1.89537 -0.348463 0
M  V30 29 H -4.47979 1.69237 -0.239065 0
M  V30 30 H -4.50385 -0.924344 1.33172 0
M  V30 31 H -5.79492 0.207388 0.892734 0
M  V30 32 H -4.68395 0.704746 2.18611 0
M  V30 33 H -3.33345 -1.12113 -0.681122 0
M  V30 34 H -3.24414 0.284882 -1.8835 0
M  V30 35 H -4.79699 -0.409806 -1.38783 0
M  V30 END ATOM
M  V30 BEGIN BOND
M  V30 1 1 1 2
M  V30 2 1 2 3
M  V30 3 2 3 4
M  V30 4 1 3 5
M  V30 5 1 5 6
M  V30 6 1 6 7
M  V30 7 2 7 8
M  V30 8 1 8 9
M  V30 9 2 9 10
M  V30 10 1 10 11
M  V30 11 1 10 12
M  V30 12 2 12 13
M  V30 13 2 12 14
M  V30 14 1 12 15
M  V30 15 1 2 16
M  V30 16 1 16 17
M  V30 17 1 16 18
M  V30 18 1 11 7
M  V30 19 1 1 19
M  V30 20 1 1 20
M  V30 21 1 2 21 CFG=1
M  V30 22 1 5 22
M  V30 23 1 6 23
M  V30 24 1 6 24
M  V30 25 1 8 25
M  V30 26 1 9 26
M  V30 27 1 15 27
M  V30 28 1 15 28
M  V30 29 1 16 29
M  V30 30 1 17 30
M  V30 31 1 17 31
M  V30 32 1 17 32
M  V30 33 1 18 33
M  V30 34 1 18 34
M  V30 35 1 18 35
M  V30 END BOND
M  V30 END CTAB
M  END
