
     RDKit          3D

  0  0  0  0  0  0  0  0  0  0999 V3000
M  V30 BEGIN CTAB
M  V30 COUNTS 34 35 0 0 0
M  V30 BEGIN ATOM
M  V30 1 N 4.67039 0.197135 -0.613791 0
M  V30 2 C 3.52693 0.518842 0.181466 0
M  V30 3 N 3.56335 1.41222 1.18469 0
M  V30 4 C 2.49429 1.72365 1.94033 0
M  V30 5 C 1.27189 1.11102 1.7017 0
M  V30 6 C 1.17555 0.191437 0.69113 0
M  V30 7 C 2.29126 -0.0940024 -0.0524262 0
M  V30 8 C -0.0917866 -0.471682 0.412136 0 CFG=2
M  V30 9 C -0.00885097 -1.2904 -0.885133 0
M  V30 10 O -1.24897 -1.67285 -1.32205 0
M  V30 11 C -2.07082 -2.22404 -0.375081 0
M  V30 12 C -3.09051 -1.16575 0.0660536 0
M  V30 13 C -2.38741 -0.211098 1.00892 0
M  V30 14 N -1.24124 0.306783 0.378323 0
M  V30 15 S -1.41277 1.60069 -0.651562 0
M  V30 16 O -0.46175 2.75381 -0.354096 0
M  V30 17 O -2.802 2.19666 -0.441976 0
M  V30 18 N -1.33526 1.16701 -2.31757 0
M  V30 19 H 4.97268 -0.807243 -0.618039 0
M  V30 20 H 5.19924 0.890828 -1.17037 0
M  V30 21 H 2.55099 2.45872 2.75576 0
M  V30 22 H 0.43932 1.39561 2.33805 0
M  V30 23 H 2.30298 -0.81377 -0.875987 0
M  V30 24 H -0.211179 -1.25741 1.22061 0
M  V30 25 H 0.672027 -2.15909 -0.707536 0
M  V30 26 H 0.424041 -0.603157 -1.64027 0
M  V30 27 H -2.65749 -3.04339 -0.867997 0
M  V30 28 H -1.56633 -2.67652 0.483594 0
M  V30 29 H -3.46371 -0.669688 -0.833136 0
M  V30 30 H -3.90574 -1.6447 0.64834 0
M  V30 31 H -3.11113 0.552443 1.36819 0
M  V30 32 H -2.11016 -0.836873 1.90813 0
M  V30 33 H -0.378788 1.42724 -2.6547 0
M  V30 34 H -1.99906 1.73756 -2.8994 0
M  V30 END ATOM
M  V30 BEGIN BOND
M  V30 1 1 1 2
M  V30 2 2 2 3
M  V30 3 1 3 4
M  V30 4 2 4 5
M  V30 5 1 5 6
M  V30 6 2 6 7
M  V30 7 1 6 8
M  V30 8 1 8 9
M  V30 9 1 9 10
M  V30 10 1 10 11
M  V30 11 1 11 12
M  V30 12 1 12 13
M  V30 13 1 13 14
M  V30 14 1 14 15
M  V30 15 2 15 16
M  V30 16 2 15 17
M  V30 17 1 15 18
M  V30 18 1 7 2
M  V30 19 1 14 8
M  V30 20 1 1 19
M  V30 21 1 1 20
M  V30 22 1 4 21
M  V30 23 1 5 22
M  V30 24 1 7 23
M  V30 25 1 8 24 CFG=1
M  V30 26 1 9 25
M  V30 27 1 9 26
M  V30 28 1 11 27
M  V30 29 1 11 28
M  V30 30 1 12 29
M  V30 31 1 12 30
M  V30 32 1 13 31
M  V30 33 1 13 32
M  V30 34 1 18 33
M  V30 35 1 18 34
M  V30 END BOND
M  V30 END CTAB
M  END
