
     RDKit          3D

  0  0  0  0  0  0  0  0  0  0999 V3000
M  V30 BEGIN CTAB
M  V30 COUNTS 23 22 0 0 0
M  V30 BEGIN ATOM
M  V30 1 C -3.49105 -0.441175 0.897286 0
M  V30 2 C -2.80556 -0.164461 -0.405083 0
M  V30 3 N -1.50771 0.41085 -0.282369 0
M  V30 4 C -0.299584 -0.340767 -0.191911 0
M  V30 5 O -0.312926 -1.60943 -0.216451 0
M  V30 6 C 1.01884 0.322414 -0.065851 0
M  V30 7 C 2.1608 -0.582551 0.0160526 0
M  V30 8 O 2.00078 -1.81563 -0.0203547 0
M  V30 9 N 3.46401 -0.0537535 0.138146 0
M  V30 10 N 4.54552 -0.906207 0.215772 0
M  V30 11 N -1.39591 1.80286 -0.246714 0
M  V30 12 H -4.31826 0.279835 1.08587 0
M  V30 13 H -3.97041 -1.44132 0.845386 0
M  V30 14 H -2.82545 -0.376006 1.77995 0
M  V30 15 H -2.72913 -1.09428 -1.03927 0
M  V30 16 H -3.43734 0.528423 -0.998493 0
M  V30 17 H 1.08154 1.01919 -0.94158 0
M  V30 18 H 0.946806 1.00466 0.827616 0
M  V30 19 H 3.66723 0.974038 0.174525 0
M  V30 20 H 5.30709 -0.58401 0.822524 0
M  V30 21 H 4.8675 -1.29854 -0.675811 0
M  V30 22 H -1.06216 2.16191 0.6663 0
M  V30 23 H -0.904653 2.20396 -1.05922 0
M  V30 END ATOM
M  V30 BEGIN BOND
M  V30 1 1 1 2
M  V30 2 1 2 3
M  V30 3 1 3 4
M  V30 4 2 4 5
M  V30 5 1 4 6
M  V30 6 1 6 7
M  V30 7 2 7 8
M  V30 8 1 7 9
M  V30 9 1 9 10
M  V30 10 1 3 11
M  V30 11 1 1 12
M  V30 12 1 1 13
M  V30 13 1 1 14
M  V30 14 1 2 15
M  V30 15 1 2 16
M  V30 16 1 6 17
M  V30 17 1 6 18
M  V30 18 1 9 19
M  V30 19 1 10 20
M  V30 20 1 10 21
M  V30 21 1 11 22
M  V30 22 1 11 23
M  V30 END BOND
M  V30 END CTAB
M  END
