
     RDKit          3D

  0  0  0  0  0  0  0  0  0  0999 V3000
M  V30 BEGIN CTAB
M  V30 COUNTS 42 43 0 0 0
M  V30 BEGIN ATOM
M  V30 1 N 5.72289 0.924386 -0.161512 0
M  V30 2 C 4.40688 1.37072 0.178367 0
M  V30 3 C 3.90176 0.540358 1.36736 0
M  V30 4 C 2.38196 0.467491 1.21801 0
M  V30 5 C 2.05058 -0.511151 0.0857747 0
M  V30 6 C 2.98236 -0.225232 -1.03831 0
M  V30 7 C 3.4941 1.229 -1.01281 0
M  V30 8 N 0.650088 -0.411208 -0.265734 0
M  V30 9 C -0.269089 -1.46175 -0.164049 0
M  V30 10 O 0.175904 -2.59696 0.261351 0
M  V30 11 C -1.65629 -1.34136 -0.506992 0
M  V30 12 C -2.20207 -1.98318 -1.62188 0
M  V30 13 C -3.52632 -1.81727 -1.96373 0
M  V30 14 Br -4.24048 -2.70087 -3.50596 0
M  V30 15 C -4.32933 -1.0077 -1.19385 0
M  V30 16 C -3.84415 -0.339526 -0.0662937 0
M  V30 17 C -2.52318 -0.528915 0.239844 0
M  V30 18 C -1.94296 0.13281 1.43577 0
M  V30 19 S -4.86163 0.64934 0.920934 0
M  V30 20 O -5.09006 0.0632246 2.30133 0
M  V30 21 O -4.36173 2.04868 1.10595 0
M  V30 22 N -6.46309 0.765758 0.221278 0
M  V30 23 H 6.1681 1.47454 -0.905839 0
M  V30 24 H 6.26537 0.824568 0.709708 0
M  V30 25 H 4.49352 2.45637 0.482379 0
M  V30 26 H 4.3534 -0.454717 1.3812 0
M  V30 27 H 4.07341 1.15329 2.28997 0
M  V30 28 H 1.91319 0.112734 2.14433 0
M  V30 29 H 2.03661 1.47195 0.914124 0
M  V30 30 H 2.24578 -1.55041 0.452239 0
M  V30 31 H 3.91908 -0.827362 -0.908669 0
M  V30 32 H 2.61301 -0.482239 -2.05037 0
M  V30 33 H 2.6555 1.94586 -1.02799 0
M  V30 34 H 4.10226 1.3625 -1.92911 0
M  V30 35 H 0.32909 0.537081 -0.644072 0
M  V30 36 H -1.57724 -2.63517 -2.25838 0
M  V30 37 H -5.34819 -0.90084 -1.47899 0
M  V30 38 H -1.01813 -0.415991 1.79314 0
M  V30 39 H -2.64637 0.0122447 2.28435 0
M  V30 40 H -1.71681 1.17819 1.18188 0
M  V30 41 H -6.51986 1.58233 -0.417423 0
M  V30 42 H -6.79785 -0.11156 -0.183233 0
M  V30 END ATOM
M  V30 BEGIN BOND
M  V30 1 1 1 2
M  V30 2 1 2 3
M  V30 3 1 3 4
M  V30 4 1 4 5
M  V30 5 1 5 6
M  V30 6 1 6 7
M  V30 7 1 5 8
M  V30 8 1 8 9
M  V30 9 2 9 10
M  V30 10 1 9 11
M  V30 11 2 11 12
M  V30 12 1 12 13
M  V30 13 1 13 14
M  V30 14 2 13 15
M  V30 15 1 15 16
M  V30 16 2 16 17
M  V30 17 1 17 18
M  V30 18 1 16 19
M  V30 19 2 19 20
M  V30 20 2 19 21
M  V30 21 1 19 22
M  V30 22 1 7 2
M  V30 23 1 17 11
M  V30 24 1 1 23
M  V30 25 1 1 24
M  V30 26 1 2 25
M  V30 27 1 3 26
M  V30 28 1 3 27
M  V30 29 1 4 28
M  V30 30 1 4 29
M  V30 31 1 5 30
M  V30 32 1 6 31
M  V30 33 1 6 32
M  V30 34 1 7 33
M  V30 35 1 7 34
M  V30 36 1 8 35
M  V30 37 1 12 36
M  V30 38 1 15 37
M  V30 39 1 18 38
M  V30 40 1 18 39
M  V30 41 1 18 40
M  V30 42 1 22 41
M  V30 43 1 22 42
M  V30 END BOND
M  V30 END CTAB
M  END
