
     RDKit          3D

  0  0  0  0  0  0  0  0  0  0999 V3000
M  V30 BEGIN CTAB
M  V30 COUNTS 30 31 0 0 0
M  V30 BEGIN ATOM
M  V30 1 N 5.31719 0.587163 0.838455 0
M  V30 2 C 4.04293 0.270247 0.311131 0
M  V30 3 C 3.68804 -1.01912 -0.0889104 0
M  V30 4 C 2.4255 -1.22617 -0.619866 0
M  V30 5 C 1.4786 -0.246804 -0.788071 0
M  V30 6 C 1.85337 1.03612 -0.382086 0
M  V30 7 C 3.08988 1.28771 0.150072 0
M  V30 8 Cl 0.744749 2.41237 -0.528603 0
M  V30 9 O 0.251306 -0.494939 -1.3225 0
M  V30 10 C -1.00007 -0.298549 -0.793459 0
M  V30 11 C -1.79322 0.646867 -1.45317 0
M  V30 12 C -3.04031 0.912215 -0.988213 0
M  V30 13 C -3.55552 0.272663 0.119059 0
M  V30 14 C -2.76396 -0.656339 0.750958 0
M  V30 15 C -1.46842 -0.94813 0.29164 0
M  V30 16 N -0.75204 -1.99844 0.991753 0
M  V30 17 C -4.91495 0.617458 0.616476 0
M  V30 18 F -4.80268 0.8951 1.97883 0
M  V30 19 F -5.2641 1.82486 0.00640868 0
M  V30 20 F -5.78917 -0.381148 0.354671 0
M  V30 21 H 6.11505 -0.0691137 0.757531 0
M  V30 22 H 5.45922 1.49161 1.32472 0
M  V30 23 H 4.44687 -1.76475 0.0526225 0
M  V30 24 H 2.23758 -2.26417 -0.91283 0
M  V30 25 H 3.38926 2.28041 0.469782 0
M  V30 26 H -1.4348 1.16746 -2.34493 0
M  V30 27 H -3.64186 1.6521 -1.52219 0
M  V30 28 H -3.16726 -1.16701 1.63251 0
M  V30 29 H -1.31767 -2.89704 1.0557 0
M  V30 30 H 0.166487 -1.92263 1.38926 0
M  V30 END ATOM
M  V30 BEGIN BOND
M  V30 1 1 1 2
M  V30 2 2 2 3
M  V30 3 1 3 4
M  V30 4 2 4 5
M  V30 5 1 5 6
M  V30 6 2 6 7
M  V30 7 1 6 8
M  V30 8 1 5 9
M  V30 9 1 9 10
M  V30 10 2 10 11
M  V30 11 1 11 12
M  V30 12 2 12 13
M  V30 13 1 13 14
M  V30 14 2 14 15
M  V30 15 1 15 16
M  V30 16 1 13 17
M  V30 17 1 17 18
M  V30 18 1 17 19
M  V30 19 1 17 20
M  V30 20 1 7 2
M  V30 21 1 15 10
M  V30 22 1 1 21
M  V30 23 1 1 22
M  V30 24 1 3 23
M  V30 25 1 4 24
M  V30 26 1 7 25
M  V30 27 1 11 26
M  V30 28 1 12 27
M  V30 29 1 14 28
M  V30 30 1 16 29
M  V30 31 1 16 30
M  V30 END BOND
M  V30 END CTAB
M  END
