
     RDKit          3D

  0  0  0  0  0  0  0  0  0  0999 V3000
M  V30 BEGIN CTAB
M  V30 COUNTS 22 22 0 0 0
M  V30 BEGIN ATOM
M  V30 1 N 3.66412 -0.116586 -0.109441 0
M  V30 2 C 2.25816 -0.146067 0.131073 0
M  V30 3 C 1.50826 0.891507 -0.438314 0
M  V30 4 C 0.137217 0.86868 -0.209165 0
M  V30 5 N -0.674539 1.89193 -0.754138 0
M  V30 6 C -0.457366 -0.118884 0.537639 0
M  V30 7 C -1.92427 -0.0766634 0.733364 0
M  V30 8 C -2.54937 -0.557582 -0.549362 0
M  V30 9 O -3.9451 -0.604995 -0.603752 0
M  V30 10 O -1.82552 -0.906193 -1.54045 0
M  V30 11 C 0.312724 -1.12596 1.08386 0
M  V30 12 C 1.68169 -1.14079 0.879561 0
M  V30 13 F 2.47729 -2.09171 1.38415 0
M  V30 14 H 4.07538 -0.63635 -0.890405 0
M  V30 15 H 4.24389 0.455916 0.543231 0
M  V30 16 H 1.96304 1.67116 -1.02686 0
M  V30 17 H -0.866466 1.87353 -1.77751 0
M  V30 18 H -1.07055 2.64776 -0.137661 0
M  V30 19 H -2.27355 -0.688557 1.58537 0
M  V30 20 H -2.23528 0.995775 0.834695 0
M  V30 21 H -4.37414 -1.1679 -1.35245 0
M  V30 22 H -0.125612 -1.91803 1.67656 0
M  V30 END ATOM
M  V30 BEGIN BOND
M  V30 1 1 1 2
M  V30 2 2 2 3
M  V30 3 1 3 4
M  V30 4 1 4 5
M  V30 5 2 4 6
M  V30 6 1 6 7
M  V30 7 1 7 8
M  V30 8 1 8 9
M  V30 9 2 8 10
M  V30 10 1 6 11
M  V30 11 2 11 12
M  V30 12 1 12 13
M  V30 13 1 12 2
M  V30 14 1 1 14
M  V30 15 1 1 15
M  V30 16 1 3 16
M  V30 17 1 5 17
M  V30 18 1 5 18
M  V30 19 1 7 19
M  V30 20 1 7 20
M  V30 21 1 9 21
M  V30 22 1 11 22
M  V30 END BOND
M  V30 END CTAB
M  END
