
     RDKit          3D

  0  0  0  0  0  0  0  0  0  0999 V3000
M  V30 BEGIN CTAB
M  V30 COUNTS 25 26 0 0 0
M  V30 BEGIN ATOM
M  V30 1 C -4.51319 -0.223682 1.05032 0
M  V30 2 N -3.23565 -0.288784 0.334942 0
M  V30 3 C -2.0698 0.0275091 0.900089 0
M  V30 4 C -1.07914 -0.142941 -0.0435159 0
M  V30 5 C -1.69558 -0.572368 -1.19228 0
M  V30 6 N -3.00223 -0.641373 -0.900204 0
M  V30 7 N -1.03627 -0.870392 -2.41858 0
M  V30 8 C 0.367268 0.0917248 0.146255 0
M  V30 9 N 1.04258 0.501866 1.20925 0
M  V30 10 C 2.37208 0.578659 0.93338 0
M  V30 11 N 2.49065 0.196094 -0.353594 0
M  V30 12 N 1.26863 -0.0990288 -0.827929 0
M  V30 13 C 3.73903 0.121785 -1.08717 0
M  V30 14 N 3.41754 0.977648 1.81411 0
M  V30 15 H -5.26571 -0.894805 0.598906 0
M  V30 16 H -4.87576 0.810843 1.05803 0
M  V30 17 H -4.35208 -0.58206 2.08785 0
M  V30 18 H -1.88232 0.363361 1.91481 0
M  V30 19 H -0.625232 -1.79152 -2.65436 0
M  V30 20 H -0.958406 -0.113262 -3.13312 0
M  V30 21 H 3.7196 -0.684001 -1.85041 0
M  V30 22 H 4.01947 1.10847 -1.53905 0
M  V30 23 H 4.54454 -0.111338 -0.359151 0
M  V30 24 H 3.46935 0.588833 2.78328 0
M  V30 25 H 4.14064 1.64877 1.52815 0
M  V30 END ATOM
M  V30 BEGIN BOND
M  V30 1 1 1 2
M  V30 2 1 2 3
M  V30 3 2 3 4
M  V30 4 1 4 5
M  V30 5 2 5 6
M  V30 6 1 5 7
M  V30 7 1 4 8
M  V30 8 1 8 9
M  V30 9 2 9 10
M  V30 10 1 10 11
M  V30 11 1 11 12
M  V30 12 1 11 13
M  V30 13 1 10 14
M  V30 14 1 6 2
M  V30 15 2 12 8
M  V30 16 1 1 15
M  V30 17 1 1 16
M  V30 18 1 1 17
M  V30 19 1 3 18
M  V30 20 1 7 19
M  V30 21 1 7 20
M  V30 22 1 13 21
M  V30 23 1 13 22
M  V30 24 1 13 23
M  V30 25 1 14 24
M  V30 26 1 14 25
M  V30 END BOND
M  V30 END CTAB
M  END
