
     RDKit          3D

  0  0  0  0  0  0  0  0  0  0999 V3000
M  V30 BEGIN CTAB
M  V30 COUNTS 20 20 0 0 0
M  V30 BEGIN ATOM
M  V30 1 F 4.31846 0.439535 1.23712 0
M  V30 2 C 3.57121 0.0671628 0.139587 0
M  V30 3 O 2.36287 0.728075 0.0278747 0
M  V30 4 C 1.09989 0.215884 -0.0324233 0
M  V30 5 C 0.778355 -1.1245 0.00899551 0
M  V30 6 C -0.548761 -1.52903 -0.0606295 0
M  V30 7 C -1.59518 -0.638796 -0.172258 0
M  V30 8 C -1.27086 0.700408 -0.213437 0
M  V30 9 C 0.0502368 1.10481 -0.14421 0
M  V30 10 I 0.426009 3.18453 -0.216707 0
M  V30 11 N -2.34221 1.62545 -0.328365 0
M  V30 12 N -2.94468 -1.10034 -0.240714 0
M  V30 13 F 4.30628 0.333557 -1.02457 0
M  V30 14 H 3.4348 -1.01206 0.181163 0
M  V30 15 H 1.57827 -1.84362 0.0961359 0
M  V30 16 H -0.789332 -2.594 -0.0267292 0
M  V30 17 H -2.7482 2.0004 0.554915 0
M  V30 18 H -2.75912 1.96312 -1.21988 0
M  V30 19 H -3.70062 -0.543545 0.204569 0
M  V30 20 H -3.2274 -1.97705 -0.717741 0
M  V30 END ATOM
M  V30 BEGIN BOND
M  V30 1 1 1 2
M  V30 2 1 2 3
M  V30 3 1 3 4
M  V30 4 2 4 5
M  V30 5 1 5 6
M  V30 6 2 6 7
M  V30 7 1 7 8
M  V30 8 2 8 9
M  V30 9 1 9 10
M  V30 10 1 8 11
M  V30 11 1 7 12
M  V30 12 1 2 13
M  V30 13 1 9 4
M  V30 14 1 2 14
M  V30 15 1 5 15
M  V30 16 1 6 16
M  V30 17 1 11 17
M  V30 18 1 11 18
M  V30 19 1 12 19
M  V30 20 1 12 20
M  V30 END BOND
M  V30 END CTAB
M  END
