
     RDKit          3D

  0  0  0  0  0  0  0  0  0  0999 V3000
M  V30 BEGIN CTAB
M  V30 COUNTS 39 42 0 0 0
M  V30 BEGIN ATOM
M  V30 1 N 4.08182 -0.840912 -2.4091 0
M  V30 2 C 3.83994 -0.298243 -1.12513 0
M  V30 3 N 2.60181 0.0949738 -0.739272 0
M  V30 4 C 2.42843 0.599984 0.482091 0
M  V30 5 C 1.13576 1.06576 1.02826 0
M  V30 6 N 0.0502303 0.923076 0.109614 0
M  V30 7 C -1.14912 1.39373 0.714109 0
M  V30 8 C -2.12474 0.275321 0.820408 0
M  V30 9 C -1.52305 -0.847279 -0.0340143 0
M  V30 10 C -0.118082 -0.424958 -0.30835 0
M  V30 11 C -2.37623 -0.942595 -1.26899 0
M  V30 12 C -2.83721 0.520993 -1.38818 0
M  V30 13 C -3.37872 0.611971 0.0487477 0
M  V30 14 C -4.27271 -0.590071 0.0833139 0
M  V30 15 C -3.68646 -1.59508 -0.919496 0
M  V30 16 N 3.5041 0.705219 1.30618 0
M  V30 17 C 4.72964 0.325059 0.947745 0
M  V30 18 N 4.89651 -0.18331 -0.285664 0
M  V30 19 N 5.80126 0.470222 1.87334 0
M  V30 20 H 4.43027 -0.248883 -3.18153 0
M  V30 21 H 3.90409 -1.84819 -2.56815 0
M  V30 22 H 1.25772 2.17135 1.21859 0
M  V30 23 H 0.894567 0.594041 1.99347 0
M  V30 24 H -0.958728 1.77657 1.75738 0
M  V30 25 H -1.57704 2.28636 0.171293 0
M  V30 26 H -2.32407 -0.055172 1.84989 0
M  V30 27 H -1.58776 -1.79058 0.559793 0
M  V30 28 H 0.178539 -0.578101 -1.36775 0
M  V30 29 H 0.549663 -1.09785 0.302394 0
M  V30 30 H -1.88834 -1.30817 -2.15173 0
M  V30 31 H -1.94554 1.12427 -1.53285 0
M  V30 32 H -3.62268 0.643424 -2.12921 0
M  V30 33 H -3.8298 1.55644 0.279241 0
M  V30 34 H -4.1465 -1.06495 1.09318 0
M  V30 35 H -5.32608 -0.390859 -0.0947769 0
M  V30 36 H -4.36255 -1.541 -1.80545 0
M  V30 37 H -3.5981 -2.58817 -0.483255 0
M  V30 38 H 5.78187 1.31739 2.51285 0
M  V30 39 H 6.56727 -0.221779 1.92044 0
M  V30 END ATOM
M  V30 BEGIN BOND
M  V30 1 1 1 2
M  V30 2 2 2 3
M  V30 3 1 3 4
M  V30 4 1 4 5
M  V30 5 1 5 6
M  V30 6 1 6 7
M  V30 7 1 7 8
M  V30 8 1 8 9
M  V30 9 1 9 10
M  V30 10 1 9 11
M  V30 11 1 11 12
M  V30 12 1 12 13
M  V30 13 1 13 14
M  V30 14 1 14 15
M  V30 15 2 4 16
M  V30 16 1 16 17
M  V30 17 2 17 18
M  V30 18 1 17 19
M  V30 19 1 18 2
M  V30 20 1 10 6
M  V30 21 1 15 11
M  V30 22 1 13 8
M  V30 23 1 1 20
M  V30 24 1 1 21
M  V30 25 1 5 22
M  V30 26 1 5 23
M  V30 27 1 7 24
M  V30 28 1 7 25
M  V30 29 1 8 26
M  V30 30 1 9 27
M  V30 31 1 10 28
M  V30 32 1 10 29
M  V30 33 1 11 30
M  V30 34 1 12 31
M  V30 35 1 12 32
M  V30 36 1 13 33
M  V30 37 1 14 34
M  V30 38 1 14 35
M  V30 39 1 15 36
M  V30 40 1 15 37
M  V30 41 1 19 38
M  V30 42 1 19 39
M  V30 END BOND
M  V30 END CTAB
M  END
