
     RDKit          3D

  0  0  0  0  0  0  0  0  0  0999 V3000
M  V30 BEGIN CTAB
M  V30 COUNTS 26 26 0 0 0
M  V30 BEGIN ATOM
M  V30 1 C -4.10087 0.495057 0.212057 0
M  V30 2 C -3.42652 -0.188859 -0.928931 0
M  V30 3 O -2.02257 0.000405121 -0.952352 0
M  V30 4 C -1.18673 -0.399081 0.0833937 0
M  V30 5 O -1.74197 -0.949587 1.06753 0
M  V30 6 C 0.253201 -0.203089 0.0555108 0
M  V30 7 C 1.00676 -0.631016 1.12802 0
M  V30 8 C 2.36961 -0.493241 1.19931 0
M  V30 9 N 3.15107 -0.931737 2.30069 0
M  V30 10 C 2.99744 0.109897 0.126203 0
M  V30 11 C 2.26256 0.545364 -0.956911 0
M  V30 12 C 0.904143 0.395472 -1.00223 0
M  V30 13 N 0.120711 0.844717 -2.12613 0
M  V30 14 C 4.42745 0.271515 0.166032 0
M  V30 15 N 5.57572 0.411768 0.19099 0
M  V30 16 H -3.43639 0.99699 0.916588 0
M  V30 17 H -4.80444 1.28348 -0.18289 0
M  V30 18 H -4.78224 -0.216327 0.762025 0
M  V30 19 H -3.80211 0.229258 -1.90684 0
M  V30 20 H -3.63578 -1.28165 -0.865113 0
M  V30 21 H 0.531356 -1.11373 1.99393 0
M  V30 22 H 4.06922 -1.44195 2.17454 0
M  V30 23 H 2.87073 -0.779309 3.2954 0
M  V30 24 H 2.73985 1.02271 -1.81133 0
M  V30 25 H -0.221679 1.82512 -2.17827 0
M  V30 26 H -0.118509 0.197825 -2.90835 0
M  V30 END ATOM
M  V30 BEGIN BOND
M  V30 1 1 1 2
M  V30 2 1 2 3
M  V30 3 1 3 4
M  V30 4 2 4 5
M  V30 5 1 4 6
M  V30 6 2 6 7
M  V30 7 1 7 8
M  V30 8 1 8 9
M  V30 9 2 8 10
M  V30 10 1 10 11
M  V30 11 2 11 12
M  V30 12 1 12 13
M  V30 13 1 10 14
M  V30 14 3 14 15
M  V30 15 1 12 6
M  V30 16 1 1 16
M  V30 17 1 1 17
M  V30 18 1 1 18
M  V30 19 1 2 19
M  V30 20 1 2 20
M  V30 21 1 7 21
M  V30 22 1 9 22
M  V30 23 1 9 23
M  V30 24 1 11 24
M  V30 25 1 13 25
M  V30 26 1 13 26
M  V30 END BOND
M  V30 END CTAB
M  END
