
     RDKit          3D

  0  0  0  0  0  0  0  0  0  0999 V3000
M  V30 BEGIN CTAB
M  V30 COUNTS 30 31 0 0 0
M  V30 BEGIN ATOM
M  V30 1 N 4.5292 0.654717 0.613346 0
M  V30 2 C 3.2545 0.0946109 0.435182 0
M  V30 3 N 2.81059 -1.01453 1.00858 0
M  V30 4 O 1.57293 -1.25483 0.662618 0
M  V30 5 C 1.17491 -0.288537 -0.163912 0
M  V30 6 N 2.20032 0.547446 -0.313201 0
M  V30 7 C -0.197849 -0.280636 -0.737042 0
M  V30 8 C -0.157042 -0.892513 -2.13385 0
M  V30 9 C -0.778407 1.09539 -0.885901 0
M  V30 10 C -0.999347 1.80089 0.403143 0
M  V30 11 C -1.65949 0.998536 1.46466 0
M  V30 12 C -1.41755 -0.463211 1.44662 0
M  V30 13 C -1.12772 -1.07008 0.120828 0
M  V30 14 N -2.33748 -1.34517 -0.648517 0
M  V30 15 H 4.99787 0.863977 1.52426 0
M  V30 16 H 5.07839 0.878527 -0.228715 0
M  V30 17 H 0.569327 -0.283361 -2.71809 0
M  V30 18 H -1.1567 -0.643823 -2.59611 0
M  V30 19 H 0.0677872 -1.96161 -2.1404 0
M  V30 20 H -0.248409 1.75115 -1.58556 0
M  V30 21 H -1.81226 0.952571 -1.32985 0
M  V30 22 H -1.66346 2.68803 0.211153 0
M  V30 23 H -0.0379284 2.26621 0.733222 0
M  V30 24 H -2.75848 1.21659 1.50714 0
M  V30 25 H -1.2791 1.38849 2.4403 0
M  V30 26 H -0.603509 -0.790003 2.14481 0
M  V30 27 H -2.34313 -0.972738 1.8505 0
M  V30 28 H -0.637771 -2.06041 0.317852 0
M  V30 29 H -2.06243 -2.02962 -1.39229 0
M  V30 30 H -2.97775 -1.84605 -0.0107692 0
M  V30 END ATOM
M  V30 BEGIN BOND
M  V30 1 1 1 2
M  V30 2 2 2 3
M  V30 3 1 3 4
M  V30 4 1 4 5
M  V30 5 2 5 6
M  V30 6 1 5 7
M  V30 7 1 7 8
M  V30 8 1 7 9
M  V30 9 1 9 10
M  V30 10 1 10 11
M  V30 11 1 11 12
M  V30 12 1 12 13
M  V30 13 1 13 14
M  V30 14 1 6 2
M  V30 15 1 13 7
M  V30 16 1 1 15
M  V30 17 1 1 16
M  V30 18 1 8 17
M  V30 19 1 8 18
M  V30 20 1 8 19
M  V30 21 1 9 20
M  V30 22 1 9 21
M  V30 23 1 10 22
M  V30 24 1 10 23
M  V30 25 1 11 24
M  V30 26 1 11 25
M  V30 27 1 12 26
M  V30 28 1 12 27
M  V30 29 1 13 28
M  V30 30 1 14 29
M  V30 31 1 14 30
M  V30 END BOND
M  V30 END CTAB
M  END
