
     RDKit          3D

  0  0  0  0  0  0  0  0  0  0999 V3000
M  V30 BEGIN CTAB
M  V30 COUNTS 57 61 0 0 0
M  V30 BEGIN ATOM
M  V30 1 O 1.90786 -1.70312 0.362043 0
M  V30 2 C 1.59968 -0.483352 0.539463 0
M  V30 3 C 0.204779 -0.123207 0.39074 0
M  V30 4 C -0.804197 -1.03597 0.0671607 0
M  V30 5 N -0.640046 -2.45187 -0.16801 0
M  V30 6 N -1.9382 -0.330143 0.0220883 0
M  V30 7 C -1.71769 0.96393 0.29419 0
M  V30 8 C -0.360854 1.13293 0.534588 0
M  V30 9 N 0.102637 2.36984 0.833606 0
M  V30 10 C -0.691714 3.44617 0.909053 0
M  V30 11 C -0.187484 4.71158 1.21961 0
M  V30 12 C -1.01454 5.81241 1.29453 0
M  V30 13 C -2.3566 5.60657 1.04964 0
M  V30 14 C -2.88311 4.37245 0.741401 0
M  V30 15 C -2.03541 3.27923 0.671065 0
M  V30 16 N -2.50127 2.06568 0.375975 0
M  V30 17 C -3.2132 -0.885083 -0.276687 0
M  V30 18 C -3.36704 -1.78562 -1.30392 0
M  V30 19 C -4.61933 -2.30348 -1.56504 0
M  V30 20 C -5.74121 -1.96082 -0.839864 0
M  V30 21 C -5.58247 -1.05574 0.191388 0
M  V30 22 C -4.32986 -0.536815 0.453676 0
M  V30 23 S -7.32094 -2.63214 -1.1907 0
M  V30 24 O -7.12759 -4.00675 -1.78847 0
M  V30 25 O -8.09801 -2.69928 0.0998657 0
M  V30 26 N -8.14423 -1.63453 -2.33812 0
M  V30 27 N 2.624 0.412207 0.862597 0
M  V30 28 C 4.00002 0.0197747 0.990901 0
M  V30 29 C 4.53518 -0.489688 -0.293137 0
M  V30 30 C 5.97526 -0.895767 -0.188653 0
M  V30 31 C 6.22378 -2.20005 0.162548 0
M  V30 32 C 7.52079 -2.69143 0.290556 0
M  V30 33 C 8.56495 -1.80853 0.0484816 0
M  V30 34 C 8.31001 -0.51182 -0.300652 0
M  V30 35 C 7.01671 -0.0311678 -0.425776 0
M  V30 36 H -1.19012 -3.15715 0.356776 0
M  V30 37 H 0.0371397 -2.81085 -0.873343 0
M  V30 38 H 0.857675 4.85738 1.40765 0
M  V30 39 H -0.621698 6.80465 1.53765 0
M  V30 40 H -3.00826 6.45219 1.10467 0
M  V30 41 H -3.9407 4.20695 0.547812 0
M  V30 42 H -2.52226 -2.1102 -1.92912 0
M  V30 43 H -4.73197 -3.01794 -2.38268 0
M  V30 44 H -6.47086 -0.796232 0.751561 0
M  V30 45 H -4.28508 0.17193 1.28374 0
M  V30 46 H -7.45257 -1.18421 -2.99991 0
M  V30 47 H -8.70997 -2.27624 -2.95541 0
M  V30 48 H 2.37965 1.42906 1.02134 0
M  V30 49 H 4.60551 0.881272 1.3949 0
M  V30 50 H 4.01869 -0.762579 1.80156 0
M  V30 51 H 4.54239 0.370703 -1.01241 0
M  V30 52 H 3.96279 -1.33698 -0.664618 0
M  V30 53 H 5.40973 -2.88214 0.34959 0
M  V30 54 H 7.71544 -3.71602 0.566438 0
M  V30 55 H 9.5678 -2.1961 0.149517 0
M  V30 56 H 9.14275 0.149397 -0.482127 0
M  V30 57 H 6.78329 0.986702 -0.699714 0
M  V30 END ATOM
M  V30 BEGIN BOND
M  V30 1 2 1 2
M  V30 2 1 2 3
M  V30 3 2 3 4
M  V30 4 1 4 5
M  V30 5 1 4 6
M  V30 6 1 6 7
M  V30 7 2 7 8
M  V30 8 1 8 9
M  V30 9 2 9 10
M  V30 10 1 10 11
M  V30 11 2 11 12
M  V30 12 1 12 13
M  V30 13 2 13 14
M  V30 14 1 14 15
M  V30 15 2 15 16
M  V30 16 1 6 17
M  V30 17 2 17 18
M  V30 18 1 18 19
M  V30 19 2 19 20
M  V30 20 1 20 21
M  V30 21 2 21 22
M  V30 22 1 20 23
M  V30 23 2 23 24
M  V30 24 2 23 25
M  V30 25 1 23 26
M  V30 26 1 2 27
M  V30 27 1 27 28
M  V30 28 1 28 29
M  V30 29 1 29 30
M  V30 30 2 30 31
M  V30 31 1 31 32
M  V30 32 2 32 33
M  V30 33 1 33 34
M  V30 34 2 34 35
M  V30 35 1 8 3
M  V30 36 1 15 10
M  V30 37 1 22 17
M  V30 38 1 35 30
M  V30 39 1 16 7
M  V30 40 1 5 36
M  V30 41 1 5 37
M  V30 42 1 11 38
M  V30 43 1 12 39
M  V30 44 1 13 40
M  V30 45 1 14 41
M  V30 46 1 18 42
M  V30 47 1 19 43
M  V30 48 1 21 44
M  V30 49 1 22 45
M  V30 50 1 26 46
M  V30 51 1 26 47
M  V30 52 1 27 48
M  V30 53 1 28 49
M  V30 54 1 28 50
M  V30 55 1 29 51
M  V30 56 1 29 52
M  V30 57 1 31 53
M  V30 58 1 32 54
M  V30 59 1 33 55
M  V30 60 1 34 56
M  V30 61 1 35 57
M  V30 END BOND
M  V30 END CTAB
M  END
