
     RDKit          3D

  0  0  0  0  0  0  0  0  0  0999 V3000
M  V30 BEGIN CTAB
M  V30 COUNTS 46 47 0 0 0
M  V30 BEGIN ATOM
M  V30 1 C -0.722924 -0.956079 0.114607 0 CFG=2
M  V30 2 N -0.956229 -1.98156 -0.880825 0
M  V30 3 C -1.33323 0.344327 -0.201077 0
M  V30 4 O -2.66334 0.430723 -0.367933 0
M  V30 5 C -3.51545 0.101396 0.605455 0
M  V30 6 C -4.90267 0.304777 0.113172 0
M  V30 7 C -5.07532 0.763273 -1.17202 0
M  V30 8 C -6.30816 0.993667 -1.74962 0
M  V30 9 C -7.43019 0.739784 -0.96552 0
M  V30 10 C -7.2543 0.280714 0.3211 0
M  V30 11 C -6.01194 0.059688 0.871673 0
M  V30 12 C 0.79672 -0.762073 0.0688226 0 CFG=2
M  V30 13 N 1.39472 -2.05579 0.403487 0
M  V30 14 C 1.29178 0.212517 1.07901 0
M  V30 15 O 2.69092 0.298123 1.0618 0
M  V30 16 C 3.21255 0.703937 -0.143676 0
M  V30 17 C 4.69852 0.746198 0.0159354 0
M  V30 18 C 5.52855 1.12427 -1.03252 0
M  V30 19 C 6.89869 1.16772 -0.899822 0
M  V30 20 C 7.4963 0.831009 0.299484 0
M  V30 21 C 6.68957 0.453788 1.34983 0
M  V30 22 C 5.31924 0.416494 1.19733 0
M  V30 23 H -0.948553 -1.38577 1.09807 0
M  V30 24 H -0.67879 -1.71747 -1.83273 0
M  V30 25 H -0.574023 -2.87405 -0.537307 0
M  V30 26 H -1.07894 1.04738 0.647144 0
M  V30 27 H -0.824252 0.770004 -1.08766 0
M  V30 28 H -3.49465 -0.98769 0.909665 0
M  V30 29 H -3.42534 0.670522 1.55225 0
M  V30 30 H -4.20696 0.972652 -1.8153 0
M  V30 31 H -6.40759 1.3576 -2.77203 0
M  V30 32 H -8.39098 0.920754 -1.41967 0
M  V30 33 H -8.16726 0.0950911 0.899905 0
M  V30 34 H -5.87039 -0.299998 1.87955 0
M  V30 35 H 1.05209 -0.443849 -0.9591 0
M  V30 36 H 1.45778 -2.67684 -0.442646 0
M  V30 37 H 0.781535 -2.48082 1.13226 0
M  V30 38 H 1.00053 -0.104197 2.08681 0
M  V30 39 H 0.887603 1.24877 0.928841 0
M  V30 40 H 2.88084 1.71436 -0.459309 0
M  V30 41 H 3.02984 -0.00434701 -0.984167 0
M  V30 42 H 5.11996 1.39687 -1.98846 0
M  V30 43 H 7.57046 1.45989 -1.70397 0
M  V30 44 H 8.58429 0.858613 0.42698 0
M  V30 45 H 7.12978 0.187562 2.29161 0
M  V30 46 H 4.72923 0.110985 2.06058 0
M  V30 END ATOM
M  V30 BEGIN BOND
M  V30 1 1 1 2
M  V30 2 1 1 3
M  V30 3 1 3 4
M  V30 4 1 4 5
M  V30 5 1 5 6
M  V30 6 2 6 7
M  V30 7 1 7 8
M  V30 8 2 8 9
M  V30 9 1 9 10
M  V30 10 2 10 11
M  V30 11 1 1 12
M  V30 12 1 12 13
M  V30 13 1 12 14
M  V30 14 1 14 15
M  V30 15 1 15 16
M  V30 16 1 16 17
M  V30 17 2 17 18
M  V30 18 1 18 19
M  V30 19 2 19 20
M  V30 20 1 20 21
M  V30 21 2 21 22
M  V30 22 1 11 6
M  V30 23 1 22 17
M  V30 24 1 1 23 CFG=1
M  V30 25 1 2 24
M  V30 26 1 2 25
M  V30 27 1 3 26
M  V30 28 1 3 27
M  V30 29 1 5 28
M  V30 30 1 5 29
M  V30 31 1 7 30
M  V30 32 1 8 31
M  V30 33 1 9 32
M  V30 34 1 10 33
M  V30 35 1 11 34
M  V30 36 1 12 35 CFG=3
M  V30 37 1 13 36
M  V30 38 1 13 37
M  V30 39 1 14 38
M  V30 40 1 14 39
M  V30 41 1 16 40
M  V30 42 1 16 41
M  V30 43 1 18 42
M  V30 44 1 19 43
M  V30 45 1 20 44
M  V30 46 1 21 45
M  V30 47 1 22 46
M  V30 END BOND
M  V30 END CTAB
M  END
