
     RDKit          3D

  0  0  0  0  0  0  0  0  0  0999 V3000
M  V30 BEGIN CTAB
M  V30 COUNTS 24 24 0 0 0
M  V30 BEGIN ATOM
M  V30 1 N -0.870509 -2.45765 -0.825289 0
M  V30 2 C -1.71296 -1.29679 -0.899317 0
M  V30 3 N -2.92142 -1.49493 -1.26393 0
M  V30 4 C -1.24328 0.0237636 -0.559656 0
M  V30 5 C -2.15748 1.0838 -0.565259 0
M  V30 6 C -1.77554 2.35723 -0.20783 0
M  V30 7 C -0.469116 2.56993 0.157649 0
M  V30 8 C 0.42598 1.53024 0.162001 0
M  V30 9 C 0.0643603 0.221592 -0.198597 0
M  V30 10 N 1.08783 -0.768883 -0.197173 0
M  V30 11 S 2.13848 -0.893493 1.18953 0
M  V30 12 O 1.39226 -0.554162 2.44716 0
M  V30 13 O 2.54833 -2.33102 1.30591 0
M  V30 14 N 3.52864 0.0732855 0.978816 0
M  V30 15 H -0.657341 -2.89212 0.106214 0
M  V30 16 H -0.48933 -2.83976 -1.72017 0
M  V30 17 H -3.67517 -0.822159 -1.38105 0
M  V30 18 H -3.19565 0.96709 -0.844332 0
M  V30 19 H -2.51394 3.17465 -0.220435 0
M  V30 20 H -0.175935 3.56964 0.43727 0
M  V30 21 H 1.459 1.69721 0.450809 0
M  V30 22 H 1.30088 -1.42701 -0.970962 0
M  V30 23 H 4.4045 -0.468938 1.13938 0
M  V30 24 H 3.50741 0.97849 1.47925 0
M  V30 END ATOM
M  V30 BEGIN BOND
M  V30 1 1 1 2
M  V30 2 2 2 3 CFG=2
M  V30 3 1 2 4
M  V30 4 2 4 5
M  V30 5 1 5 6
M  V30 6 2 6 7
M  V30 7 1 7 8
M  V30 8 2 8 9
M  V30 9 1 9 10
M  V30 10 1 10 11
M  V30 11 2 11 12
M  V30 12 2 11 13
M  V30 13 1 11 14
M  V30 14 1 9 4
M  V30 15 1 1 15
M  V30 16 1 1 16
M  V30 17 1 3 17
M  V30 18 1 5 18
M  V30 19 1 6 19
M  V30 20 1 7 20
M  V30 21 1 8 21
M  V30 22 1 10 22
M  V30 23 1 14 23
M  V30 24 1 14 24
M  V30 END BOND
M  V30 END CTAB
M  END
