
     RDKit          3D

  0  0  0  0  0  0  0  0  0  0999 V3000
M  V30 BEGIN CTAB
M  V30 COUNTS 15 15 0 0 0
M  V30 BEGIN ATOM
M  V30 1 F -1.1712 2.60555 0.0486273 0
M  V30 2 C -0.235934 1.62301 -0.00846347 0
M  V30 3 C 1.09222 1.98397 -0.117909 0
M  V30 4 N 1.99877 0.988008 -0.172538 0
M  V30 5 C 1.63906 -0.315974 -0.123405 0
M  V30 6 C 0.321273 -0.709358 -0.0142447 0
M  V30 7 C -0.629792 0.288851 0.0438204 0
M  V30 8 N -1.99052 -0.0757173 0.155863 0
M  V30 9 N -0.0323863 -2.07684 0.0354367 0
M  V30 10 Br 2.95078 -1.70763 -0.203243 0
M  V30 11 H 1.39194 3.02846 -0.158166 0
M  V30 12 H -2.47396 -0.592921 -0.618487 0
M  V30 13 H -2.48849 0.189814 1.03469 0
M  V30 14 H 0.596502 -2.8264 0.403366 0
M  V30 15 H -0.968254 -2.40282 -0.30535 0
M  V30 END ATOM
M  V30 BEGIN BOND
M  V30 1 1 1 2
M  V30 2 2 2 3
M  V30 3 1 3 4
M  V30 4 2 4 5
M  V30 5 1 5 6
M  V30 6 2 6 7
M  V30 7 1 7 8
M  V30 8 1 6 9
M  V30 9 1 5 10
M  V30 10 1 7 2
M  V30 11 1 3 11
M  V30 12 1 8 12
M  V30 13 1 8 13
M  V30 14 1 9 14
M  V30 15 1 9 15
M  V30 END BOND
M  V30 END CTAB
M  END
