
     RDKit          3D

  0  0  0  0  0  0  0  0  0  0999 V3000
M  V30 BEGIN CTAB
M  V30 COUNTS 47 50 0 0 0
M  V30 BEGIN ATOM
M  V30 1 C 2.188 -2.33793 -1.88105 0
M  V30 2 O 3.06085 -1.47874 -1.17683 0
M  V30 3 C 2.52117 -0.476323 -0.383369 0
M  V30 4 C 1.13038 -0.33596 -0.296007 0
M  V30 5 C 0.529124 0.633296 0.469771 0
M  V30 6 C 1.34359 1.49501 1.17494 0
M  V30 7 C 2.72725 1.35892 1.09088 0
M  V30 8 C 3.31883 0.388539 0.324017 0
M  V30 9 O 4.68281 0.287259 0.267484 0
M  V30 10 C 5.58079 1.11686 0.948383 0
M  V30 11 C -0.964386 0.764855 0.549211 0
M  V30 12 C -1.47415 1.63676 -0.53449 0
M  V30 13 C -0.954677 2.89514 -0.692644 0
M  V30 14 C -1.40387 3.7532 -1.70362 0
M  V30 15 C -2.37939 3.34773 -2.5611 0
M  V30 16 C -2.91565 2.08781 -2.42083 0
M  V30 17 C -2.46535 1.25094 -1.42104 0
M  V30 18 O -3.02082 -0.0346438 -1.28663 0
M  V30 19 C -2.61748 -0.920202 -0.310197 0
M  V30 20 C -1.62683 -0.542619 0.58064 0
M  V30 21 C -1.25292 -1.45742 1.54231 0
M  V30 22 N -0.252893 -1.16473 2.49634 0
M  V30 23 C -1.88792 -2.70293 1.56454 0
M  V30 24 C -2.86981 -3.05519 0.668349 0
M  V30 25 N -3.20872 -2.12387 -0.263524 0
M  V30 26 N -3.5099 -4.33071 0.702547 0
M  V30 27 C -1.49344 -3.64561 2.56575 0
M  V30 28 N -1.17587 -4.38859 3.37324 0
M  V30 29 O -2.81819 4.217 -3.56709 0
M  V30 30 H 1.60255 -2.97774 -1.17163 0
M  V30 31 H 2.78861 -2.98409 -2.56589 0
M  V30 32 H 1.46866 -1.73713 -2.46673 0
M  V30 33 H 0.477845 -1.00182 -0.841319 0
M  V30 34 H 0.9299 2.2752 1.7928 0
M  V30 35 H 3.31751 2.06088 1.66398 0
M  V30 36 H 5.25555 1.26231 2.01879 0
M  V30 37 H 5.77099 2.07968 0.439621 0
M  V30 38 H 6.55635 0.583334 1.00459 0
M  V30 39 H -1.17297 1.27181 1.514 0
M  V30 40 H -0.1778 3.31272 -0.0653333 0
M  V30 41 H -0.990325 4.74526 -1.82381 0
M  V30 42 H -3.69227 1.72171 -3.07792 0
M  V30 43 H 0.603466 -1.73892 2.52302 0
M  V30 44 H -0.394795 -0.38119 3.15148 0
M  V30 45 H -4.39239 -4.39544 1.25366 0
M  V30 46 H -3.16471 -5.17988 0.226788 0
M  V30 47 H -3.57669 4.84549 -3.39608 0
M  V30 END ATOM
M  V30 BEGIN BOND
M  V30 1 1 1 2
M  V30 2 1 2 3
M  V30 3 2 3 4
M  V30 4 1 4 5
M  V30 5 2 5 6
M  V30 6 1 6 7
M  V30 7 2 7 8
M  V30 8 1 8 9
M  V30 9 1 9 10
M  V30 10 1 5 11
M  V30 11 1 11 12
M  V30 12 2 12 13
M  V30 13 1 13 14
M  V30 14 2 14 15
M  V30 15 1 15 16
M  V30 16 2 16 17
M  V30 17 1 17 18
M  V30 18 1 18 19
M  V30 19 2 19 20
M  V30 20 1 20 21
M  V30 21 1 21 22
M  V30 22 2 21 23
M  V30 23 1 23 24
M  V30 24 2 24 25
M  V30 25 1 24 26
M  V30 26 1 23 27
M  V30 27 3 27 28
M  V30 28 1 15 29
M  V30 29 1 8 3
M  V30 30 1 20 11
M  V30 31 1 17 12
M  V30 32 1 25 19
M  V30 33 1 1 30
M  V30 34 1 1 31
M  V30 35 1 1 32
M  V30 36 1 4 33
M  V30 37 1 6 34
M  V30 38 1 7 35
M  V30 39 1 10 36
M  V30 40 1 10 37
M  V30 41 1 10 38
M  V30 42 1 11 39
M  V30 43 1 13 40
M  V30 44 1 14 41
M  V30 45 1 16 42
M  V30 46 1 22 43
M  V30 47 1 22 44
M  V30 48 1 26 45
M  V30 49 1 26 46
M  V30 50 1 29 47
M  V30 END BOND
M  V30 END CTAB
M  END
