
     RDKit          3D

  0  0  0  0  0  0  0  0  0  0999 V3000
M  V30 BEGIN CTAB
M  V30 COUNTS 56 59 0 0 0
M  V30 BEGIN ATOM
M  V30 1 N 6.40854 2.675 0.139608 0
M  V30 2 C 5.06438 2.64757 0.582468 0
M  V30 3 C 4.6329 1.23844 0.96536 0
M  V30 4 C 4.73833 0.289365 -0.188992 0
M  V30 5 C 3.89708 0.671108 -1.36008 0
M  V30 6 C 2.43964 0.746772 -1.07548 0
M  V30 7 C 1.85825 -0.562367 -0.595303 0
M  V30 8 N 0.440176 -0.455846 -0.327327 0
M  V30 9 C -0.244764 -1.61026 0.131967 0
M  V30 10 N 0.263342 -2.84156 0.362527 0
M  V30 11 C -0.738902 -3.61108 0.783211 0
M  V30 12 C -1.86511 -2.85239 0.811552 0
M  V30 13 N -3.01942 -3.45634 1.21878 0
M  V30 14 C -3.02869 -4.75571 1.5764 0
M  V30 15 N -1.89267 -5.49317 1.54019 0
M  V30 16 C -0.715252 -4.95886 1.14718 0
M  V30 17 N 0.479116 -5.71041 1.10257 0
M  V30 18 N -1.57276 -1.60032 0.407542 0
M  V30 19 C -2.47844 -0.54367 0.30826 0 CFG=2
M  V30 20 O -2.41881 0.161839 -0.919685 0
M  V30 21 C -3.53109 0.970736 -0.749536 0 CFG=2
M  V30 22 C -3.65653 2.0814 -1.72284 0
M  V30 23 O -4.76931 2.82574 -1.43734 0
M  V30 24 P -5.3474 2.73914 0.0999378 0
M  V30 25 O -5.52425 4.32537 0.714779 0
M  V30 26 O -6.74893 2.14412 0.0761521 0
M  V30 27 O -4.3976 1.88719 1.1848 0
M  V30 28 C -3.19379 1.63586 0.595176 0 CFG=1
M  V30 29 C -2.36864 0.571533 1.28857 0 CFG=1
M  V30 30 O -2.94445 0.210226 2.51496 0
M  V30 31 H 7.10086 2.17911 0.610943 0
M  V30 32 H 6.51783 2.90872 -0.797773 0
M  V30 33 H 5.00629 3.29055 1.48166 0
M  V30 34 H 4.38375 3.03538 -0.2104 0
M  V30 35 H 3.62943 1.26184 1.3978 0
M  V30 36 H 5.33407 0.911873 1.76038 0
M  V30 37 H 4.55636 -0.730046 0.182873 0
M  V30 38 H 5.80638 0.306697 -0.527167 0
M  V30 39 H 4.11367 -0.0552585 -2.17921 0
M  V30 40 H 4.23546 1.65294 -1.72536 0
M  V30 41 H 1.92643 1.12369 -1.98359 0
M  V30 42 H 2.28013 1.53635 -0.294508 0
M  V30 43 H 2.44495 -0.889654 0.271905 0
M  V30 44 H 2.0442 -1.30592 -1.41264 0
M  V30 45 H -0.0138929 0.46501 -0.48395 0
M  V30 46 H -3.92409 -5.26202 1.90266 0
M  V30 47 H 1.24653 -5.54989 0.416284 0
M  V30 48 H 0.617769 -6.4776 1.79238 0
M  V30 49 H -3.52972 -0.916509 0.352531 0
M  V30 50 H -4.41181 0.333788 -0.651971 0
M  V30 51 H -2.76388 2.75453 -1.59042 0
M  V30 52 H -3.66558 1.75918 -2.78364 0
M  V30 53 H -4.85618 4.88775 0.258755 0
M  V30 54 H -2.64488 2.57541 0.4433 0
M  V30 55 H -1.37215 0.990411 1.42338 0
M  V30 56 H -3.82687 -0.155749 2.30562 0
M  V30 END ATOM
M  V30 BEGIN BOND
M  V30 1 1 1 2
M  V30 2 1 2 3
M  V30 3 1 3 4
M  V30 4 1 4 5
M  V30 5 1 5 6
M  V30 6 1 6 7
M  V30 7 1 7 8
M  V30 8 1 8 9
M  V30 9 2 9 10
M  V30 10 1 10 11
M  V30 11 2 11 12
M  V30 12 1 12 13
M  V30 13 2 13 14
M  V30 14 1 14 15
M  V30 15 2 15 16
M  V30 16 1 16 17
M  V30 17 1 12 18
M  V30 18 1 18 19
M  V30 19 1 19 20
M  V30 20 1 20 21
M  V30 21 1 21 22
M  V30 22 1 22 23
M  V30 23 1 23 24
M  V30 24 1 24 25
M  V30 25 2 24 26
M  V30 26 1 24 27
M  V30 27 1 27 28
M  V30 28 1 28 29
M  V30 29 1 29 30
M  V30 30 1 18 9
M  V30 31 1 29 19
M  V30 32 1 16 11
M  V30 33 1 28 21
M  V30 34 1 1 31
M  V30 35 1 1 32
M  V30 36 1 2 33
M  V30 37 1 2 34
M  V30 38 1 3 35
M  V30 39 1 3 36
M  V30 40 1 4 37
M  V30 41 1 4 38
M  V30 42 1 5 39
M  V30 43 1 5 40
M  V30 44 1 6 41
M  V30 45 1 6 42
M  V30 46 1 7 43
M  V30 47 1 7 44
M  V30 48 1 8 45
M  V30 49 1 14 46
M  V30 50 1 17 47
M  V30 51 1 17 48
M  V30 52 1 19 49 CFG=1
M  V30 53 1 21 50 CFG=1
M  V30 54 1 22 51
M  V30 55 1 22 52
M  V30 56 1 25 53
M  V30 57 1 28 54 CFG=3
M  V30 58 1 29 55 CFG=1
M  V30 59 1 30 56
M  V30 END BOND
M  V30 END CTAB
M  END
