
     RDKit          3D

  0  0  0  0  0  0  0  0  0  0999 V3000
M  V30 BEGIN CTAB
M  V30 COUNTS 36 36 0 0 0
M  V30 BEGIN ATOM
M  V30 1 C -3.53563 0.453827 1.43697 0
M  V30 2 C -2.3808 0.648225 0.440771 0
M  V30 3 C -1.53191 -0.575159 0.448516 0
M  V30 4 N -0.372315 -0.5688 -0.414684 0
M  V30 5 C 0.107799 -1.9624 -0.508148 0
M  V30 6 C 1.57642 -2.11544 -0.509943 0
M  V30 7 C 2.31803 -1.06284 -1.29039 0
M  V30 8 C 1.79172 0.279296 -0.885316 0
M  V30 9 C 0.746124 0.131195 0.206199 0
M  V30 10 S 3.11743 1.33253 -0.35676 0
M  V30 11 O 4.07859 1.49777 -1.4789 0
M  V30 12 O 2.57221 2.66908 0.0756823 0
M  V30 13 N 3.93078 0.618214 0.998361 0
M  V30 14 N -1.77226 1.90069 0.661647 0
M  V30 15 C -3.10853 0.688961 -0.926046 0
M  V30 16 H -3.09563 0.334628 2.46983 0
M  V30 17 H -4.11776 1.3944 1.41233 0
M  V30 18 H -4.13035 -0.441608 1.18512 0
M  V30 19 H -1.28318 -0.875226 1.48638 0
M  V30 20 H -2.1951 -1.41006 0.0562544 0
M  V30 21 H -0.341893 -2.58389 0.283146 0
M  V30 22 H -0.262033 -2.29378 -1.51509 0
M  V30 23 H 1.79293 -3.08604 -1.05401 0
M  V30 24 H 2.01511 -2.29878 0.506305 0
M  V30 25 H 2.23214 -1.27655 -2.35846 0
M  V30 26 H 3.39729 -1.10831 -1.04344 0
M  V30 27 H 1.28894 0.737291 -1.75746 0
M  V30 28 H 0.529811 1.09544 0.637549 0
M  V30 29 H 1.16654 -0.527895 1.0167 0
M  V30 30 H 4.84264 1.11162 1.09754 0
M  V30 31 H 3.37289 0.823962 1.8465 0
M  V30 32 H -1.33759 2.37045 -0.140332 0
M  V30 33 H -1.45627 2.12605 1.60021 0
M  V30 34 H -3.50736 -0.347204 -1.05586 0
M  V30 35 H -2.42941 0.990756 -1.73605 0
M  V30 36 H -4.0194 1.32958 -0.835117 0
M  V30 END ATOM
M  V30 BEGIN BOND
M  V30 1 1 1 2
M  V30 2 1 2 3
M  V30 3 1 3 4
M  V30 4 1 4 5
M  V30 5 1 5 6
M  V30 6 1 6 7
M  V30 7 1 7 8
M  V30 8 1 8 9
M  V30 9 1 8 10
M  V30 10 2 10 11
M  V30 11 2 10 12
M  V30 12 1 10 13
M  V30 13 1 2 14
M  V30 14 1 2 15
M  V30 15 1 9 4
M  V30 16 1 1 16
M  V30 17 1 1 17
M  V30 18 1 1 18
M  V30 19 1 3 19
M  V30 20 1 3 20
M  V30 21 1 5 21
M  V30 22 1 5 22
M  V30 23 1 6 23
M  V30 24 1 6 24
M  V30 25 1 7 25
M  V30 26 1 7 26
M  V30 27 1 8 27
M  V30 28 1 9 28
M  V30 29 1 9 29
M  V30 30 1 13 30
M  V30 31 1 13 31
M  V30 32 1 14 32
M  V30 33 1 14 33
M  V30 34 1 15 34
M  V30 35 1 15 35
M  V30 36 1 15 36
M  V30 END BOND
M  V30 END CTAB
M  END
