
     RDKit          3D

  0  0  0  0  0  0  0  0  0  0999 V3000
M  V30 BEGIN CTAB
M  V30 COUNTS 42 43 0 0 0
M  V30 BEGIN ATOM
M  V30 1 N -2.11483 2.43109 -1.6816 0
M  V30 2 C -3.01602 1.41411 -1.27933 0
M  V30 3 C -2.62844 0.521522 -0.155712 0
M  V30 4 C -3.70513 -0.503151 0.148022 0
M  V30 5 C -3.33455 -1.43667 1.28473 0
M  V30 6 C -3.59772 -1.93 -0.116956 0
M  V30 7 N -1.344 -0.0817579 -0.2586 0
M  V30 8 C -0.089173 0.537561 -0.209119 0
M  V30 9 O 0.0796529 1.74208 -0.050712 0
M  V30 10 C 1.15245 -0.263437 -0.351203 0
M  V30 11 C 1.23035 -1.19824 -1.35455 0
M  V30 12 C 2.36558 -1.93732 -1.49231 0
M  V30 13 Br 2.5694 -3.26636 -2.86204 0
M  V30 14 C 3.42488 -1.74735 -0.631564 0
M  V30 15 C 3.36703 -0.806605 0.390969 0
M  V30 16 C 2.20687 -0.0703772 0.509933 0
M  V30 17 C 2.10117 0.958611 1.59605 0
M  V30 18 S 4.73145 -0.619592 1.449 0
M  V30 19 O 5.84837 -1.55734 1.00914 0
M  V30 20 O 4.41004 -0.993544 2.85518 0
M  V30 21 N 5.32409 1.00642 1.39705 0
M  V30 22 C -2.5748 1.38534 1.13752 0
M  V30 23 H -2.28553 3.36561 -1.26767 0
M  V30 24 H -1.83858 2.44369 -2.67012 0
M  V30 25 H -3.17799 0.755656 -2.19401 0
M  V30 26 H -4.02162 1.88137 -1.12373 0
M  V30 27 H -4.72308 -0.0464913 0.264835 0
M  V30 28 H -4.07428 -1.63326 2.08719 0
M  V30 29 H -2.26861 -1.5141 1.59876 0
M  V30 30 H -4.56774 -2.48059 -0.203495 0
M  V30 31 H -2.81874 -2.3894 -0.724555 0
M  V30 32 H -1.30935 -1.14953 -0.390858 0
M  V30 33 H 0.401586 -1.32999 -2.00839 0
M  V30 34 H 4.33694 -2.32018 -0.718871 0
M  V30 35 H 1.08897 0.941871 2.03354 0
M  V30 36 H 2.23554 1.95387 1.07697 0
M  V30 37 H 2.90171 0.834787 2.33783 0
M  V30 38 H 5.06106 1.40259 0.461982 0
M  V30 39 H 6.35607 0.958851 1.53575 0
M  V30 40 H -2.232 2.39692 0.87534 0
M  V30 41 H -1.88612 0.886821 1.84526 0
M  V30 42 H -3.5849 1.45649 1.57298 0
M  V30 END ATOM
M  V30 BEGIN BOND
M  V30 1 1 1 2
M  V30 2 1 2 3
M  V30 3 1 3 4
M  V30 4 1 4 5
M  V30 5 1 5 6
M  V30 6 1 3 7
M  V30 7 1 7 8
M  V30 8 2 8 9
M  V30 9 1 8 10
M  V30 10 2 10 11
M  V30 11 1 11 12
M  V30 12 1 12 13
M  V30 13 2 12 14
M  V30 14 1 14 15
M  V30 15 2 15 16
M  V30 16 1 16 17
M  V30 17 1 15 18
M  V30 18 2 18 19
M  V30 19 2 18 20
M  V30 20 1 18 21
M  V30 21 1 3 22
M  V30 22 1 6 4
M  V30 23 1 16 10
M  V30 24 1 1 23
M  V30 25 1 1 24
M  V30 26 1 2 25
M  V30 27 1 2 26
M  V30 28 1 4 27
M  V30 29 1 5 28
M  V30 30 1 5 29
M  V30 31 1 6 30
M  V30 32 1 6 31
M  V30 33 1 7 32
M  V30 34 1 11 33
M  V30 35 1 14 34
M  V30 36 1 17 35
M  V30 37 1 17 36
M  V30 38 1 17 37
M  V30 39 1 21 38
M  V30 40 1 21 39
M  V30 41 1 22 40
M  V30 42 1 22 41
M  V30 43 1 22 42
M  V30 END BOND
M  V30 END CTAB
M  END
