
     RDKit          3D

  0  0  0  0  0  0  0  0  0  0999 V3000
M  V30 BEGIN CTAB
M  V30 COUNTS 24 25 0 0 0
M  V30 BEGIN ATOM
M  V30 1 N 3.24563 -1.69217 0.871073 0
M  V30 2 C 2.22267 -0.800481 0.446864 0
M  V30 3 N 0.92684 -1.07361 0.546956 0
M  V30 4 C -0.0627306 -0.219209 0.140311 0
M  V30 5 O -1.38751 -0.566867 0.27374 0
M  V30 6 C -2.49473 0.174359 -0.0836383 0
M  V30 7 C -3.5586 -0.625299 -0.817444 0
M  V30 8 O -4.54658 0.0287524 -0.110614 0
M  V30 9 C -3.62818 0.21246 0.921001 0
M  V30 10 C 0.292002 0.989012 -0.4022 0
M  V30 11 C 1.63997 1.32334 -0.529141 0
M  V30 12 C 2.6051 0.414094 -0.0980223 0
M  V30 13 N 3.97518 0.723872 -0.21338 0
M  V30 14 H 4.00064 -1.40421 1.52927 0
M  V30 15 H 3.28596 -2.68425 0.538763 0
M  V30 16 H -2.38276 1.16469 -0.531634 0
M  V30 17 H -3.49995 -1.7182 -0.611056 0
M  V30 18 H -3.5759 -0.436103 -1.90484 0
M  V30 19 H -3.63998 -0.626332 1.64852 0
M  V30 20 H -3.78692 1.18646 1.41805 0
M  V30 21 H -0.468931 1.67816 -0.72951 0
M  V30 22 H 1.89633 2.27992 -0.959118 0
M  V30 23 H 4.43614 0.658538 -1.12804 0
M  V30 24 H 4.50631 1.01307 0.615403 0
M  V30 END ATOM
M  V30 BEGIN BOND
M  V30 1 1 1 2
M  V30 2 2 2 3
M  V30 3 1 3 4
M  V30 4 1 4 5
M  V30 5 1 5 6
M  V30 6 1 6 7
M  V30 7 1 7 8
M  V30 8 1 8 9
M  V30 9 2 4 10
M  V30 10 1 10 11
M  V30 11 2 11 12
M  V30 12 1 12 13
M  V30 13 1 12 2
M  V30 14 1 9 6
M  V30 15 1 1 14
M  V30 16 1 1 15
M  V30 17 1 6 16
M  V30 18 1 7 17
M  V30 19 1 7 18
M  V30 20 1 9 19
M  V30 21 1 9 20
M  V30 22 1 10 21
M  V30 23 1 11 22
M  V30 24 1 13 23
M  V30 25 1 13 24
M  V30 END BOND
M  V30 END CTAB
M  END
