
     RDKit          3D

  0  0  0  0  0  0  0  0  0  0999 V3000
M  V30 BEGIN CTAB
M  V30 COUNTS 25 25 0 0 0
M  V30 BEGIN ATOM
M  V30 1 N 3.66806 0.661772 -0.0679538 0
M  V30 2 C 2.26018 0.493433 -0.0566981 0
M  V30 3 C 1.51098 1.59723 -0.345176 0
M  V30 4 C 0.128193 1.46014 -0.307041 0
M  V30 5 C -0.491902 0.262243 0.0132676 0
M  V30 6 C 0.291072 -0.831536 0.300074 0
M  V30 7 C 1.68508 -0.707357 0.260107 0
M  V30 8 N 2.47518 -1.81541 0.575526 0
M  V30 9 C -1.94772 0.25463 0.0938356 0
M  V30 10 F -2.35432 1.38322 0.857834 0
M  V30 11 C -2.66166 0.421403 -1.22992 0
M  V30 12 F -2.36737 1.55624 -1.91217 0
M  V30 13 F -4.04869 0.508865 -0.959178 0
M  V30 14 F -2.50767 -0.722028 -2.01188 0
M  V30 15 C -2.51417 -0.924126 0.836591 0
M  V30 16 F -2.02836 -1.01839 2.1389 0
M  V30 17 F -3.90427 -0.646981 1.05656 0
M  V30 18 F -2.4876 -2.04685 0.106799 0
M  V30 19 H 4.23278 0.341337 -0.870833 0
M  V30 20 H 4.20392 1.12022 0.732777 0
M  V30 21 H 1.94289 2.54708 -0.628493 0
M  V30 22 H -0.46524 2.36037 -0.49436 0
M  V30 23 H -0.155939 -1.75792 0.554831 0
M  V30 24 H 2.98711 -1.9176 1.4796 0
M  V30 25 H 2.54947 -2.57997 -0.12301 0
M  V30 END ATOM
M  V30 BEGIN BOND
M  V30 1 1 1 2
M  V30 2 2 2 3
M  V30 3 1 3 4
M  V30 4 2 4 5
M  V30 5 1 5 6
M  V30 6 2 6 7
M  V30 7 1 7 8
M  V30 8 1 5 9
M  V30 9 1 9 10
M  V30 10 1 9 11
M  V30 11 1 11 12
M  V30 12 1 11 13
M  V30 13 1 11 14
M  V30 14 1 9 15
M  V30 15 1 15 16
M  V30 16 1 15 17
M  V30 17 1 15 18
M  V30 18 1 7 2
M  V30 19 1 1 19
M  V30 20 1 1 20
M  V30 21 1 3 21
M  V30 22 1 4 22
M  V30 23 1 6 23
M  V30 24 1 8 24
M  V30 25 1 8 25
M  V30 END BOND
M  V30 END CTAB
M  END
