
     RDKit          3D

  0  0  0  0  0  0  0  0  0  0999 V3000
M  V30 BEGIN CTAB
M  V30 COUNTS 41 41 0 0 0
M  V30 BEGIN ATOM
M  V30 1 C -1.40182 -0.780599 -1.12486 0
M  V30 2 C -2.84594 -0.986269 -0.862258 0
M  V30 3 C -3.45746 -0.199341 0.245878 0
M  V30 4 C -2.9144 -0.411636 1.6042 0
M  V30 5 C -1.52122 -0.126697 1.86841 0
M  V30 6 O -0.770111 -1.05947 2.30531 0
M  V30 7 N -0.867711 1.12065 1.69303 0
M  V30 8 C 0.511488 1.39095 1.9592 0
M  V30 9 C 1.45369 0.885891 0.939035 0
M  V30 10 C 2.17502 -0.252514 1.21921 0
M  V30 11 C 3.05306 -0.709618 0.241573 0
M  V30 12 C 3.22729 -0.0813814 -0.973062 0
M  V30 13 C 2.49565 1.05999 -1.23795 0
M  V30 14 C 1.62789 1.52001 -0.283563 0
M  V30 15 S 4.35992 -0.715737 -2.17072 0
M  V30 16 O 4.39401 -2.21839 -1.986 0
M  V30 17 O 3.81353 -0.443762 -3.53848 0
M  V30 18 N 5.92868 -0.0406528 -1.95034 0
M  V30 19 N -3.17981 -1.83351 1.92017 0
M  V30 20 C -3.58588 1.25946 -0.137197 0
M  V30 21 H -1.22478 -1.14634 -2.18836 0
M  V30 22 H -0.698815 -1.34623 -0.512951 0
M  V30 23 H -1.15882 0.318376 -1.19587 0
M  V30 24 H -3.388 -0.728292 -1.82301 0
M  V30 25 H -3.05844 -2.07537 -0.742218 0
M  V30 26 H -4.53903 -0.5599 0.296882 0
M  V30 27 H -3.6009 0.122175 2.344 0
M  V30 28 H -1.46888 1.8963 1.33786 0
M  V30 29 H 0.659787 2.50365 1.98154 0
M  V30 30 H 0.800756 1.05748 2.98836 0
M  V30 31 H 2.08961 -0.793122 2.15416 0
M  V30 32 H 3.61279 -1.59364 0.459905 0
M  V30 33 H 2.62954 1.55286 -2.1854 0
M  V30 34 H 1.03621 2.414 -0.457034 0
M  V30 35 H 6.30176 -0.368148 -1.04804 0
M  V30 36 H 5.82742 0.99889 -1.93969 0
M  V30 37 H -2.75062 -2.06483 2.86519 0
M  V30 38 H -2.59902 -2.36644 1.23415 0
M  V30 39 H -4.44054 1.34582 -0.837764 0
M  V30 40 H -3.82297 1.83086 0.76345 0
M  V30 41 H -2.70292 1.62454 -0.697 0
M  V30 END ATOM
M  V30 BEGIN BOND
M  V30 1 1 1 2
M  V30 2 1 2 3
M  V30 3 1 3 4
M  V30 4 1 4 5
M  V30 5 2 5 6
M  V30 6 1 5 7
M  V30 7 1 7 8
M  V30 8 1 8 9
M  V30 9 2 9 10
M  V30 10 1 10 11
M  V30 11 2 11 12
M  V30 12 1 12 13
M  V30 13 2 13 14
M  V30 14 1 12 15
M  V30 15 2 15 16
M  V30 16 2 15 17
M  V30 17 1 15 18
M  V30 18 1 4 19
M  V30 19 1 3 20
M  V30 20 1 14 9
M  V30 21 1 1 21
M  V30 22 1 1 22
M  V30 23 1 1 23
M  V30 24 1 2 24
M  V30 25 1 2 25
M  V30 26 1 3 26
M  V30 27 1 4 27
M  V30 28 1 7 28
M  V30 29 1 8 29
M  V30 30 1 8 30
M  V30 31 1 10 31
M  V30 32 1 11 32
M  V30 33 1 13 33
M  V30 34 1 14 34
M  V30 35 1 18 35
M  V30 36 1 18 36
M  V30 37 1 19 37
M  V30 38 1 19 38
M  V30 39 1 20 39
M  V30 40 1 20 40
M  V30 41 1 20 41
M  V30 END BOND
M  V30 END CTAB
M  END
