
     RDKit          3D

  0  0  0  0  0  0  0  0  0  0999 V3000
M  V30 BEGIN CTAB
M  V30 COUNTS 25 25 0 0 0
M  V30 BEGIN ATOM
M  V30 1 N 1.34936 -1.44738 0.476111 0
M  V30 2 C 0.93644 -0.627832 -0.628905 0
M  V30 3 C -0.401462 -1.08831 -1.09797 0
M  V30 4 C -1.42406 -1.24385 -0.0219365 0
M  V30 5 C -1.97404 0.0234601 0.516302 0
M  V30 6 C -1.3253 1.26708 -0.0174329 0
M  V30 7 C 0.0557626 1.34365 0.645631 0
M  V30 8 C 1.03236 0.841449 -0.365577 0
M  V30 9 N 2.36892 1.1321 0.116349 0
M  V30 10 H 1.06546 -1.08171 1.38745 0
M  V30 11 H 2.33995 -1.75636 0.403409 0
M  V30 12 H 1.66012 -0.845877 -1.46979 0
M  V30 13 H -0.800929 -0.493019 -1.95262 0
M  V30 14 H -0.247869 -2.12273 -1.53094 0
M  V30 15 H -2.28699 -1.81635 -0.474583 0
M  V30 16 H -1.01017 -1.92715 0.750843 0
M  V30 17 H -1.78915 0.0245827 1.63037 0
M  V30 18 H -3.0788 0.129561 0.419291 0
M  V30 19 H -1.25124 1.30841 -1.10784 0
M  V30 20 H -1.91023 2.1422 0.31488 0
M  V30 21 H 0.100921 0.738187 1.56168 0
M  V30 22 H 0.289902 2.41889 0.830676 0
M  V30 23 H 0.846788 1.3764 -1.31567 0
M  V30 24 H 3.09061 0.499961 -0.244361 0
M  V30 25 H 2.36364 1.20465 1.17464 0
M  V30 END ATOM
M  V30 BEGIN BOND
M  V30 1 1 1 2
M  V30 2 1 2 3
M  V30 3 1 3 4
M  V30 4 1 4 5
M  V30 5 1 5 6
M  V30 6 1 6 7
M  V30 7 1 7 8
M  V30 8 1 8 9
M  V30 9 1 8 2
M  V30 10 1 1 10
M  V30 11 1 1 11
M  V30 12 1 2 12
M  V30 13 1 3 13
M  V30 14 1 3 14
M  V30 15 1 4 15
M  V30 16 1 4 16
M  V30 17 1 5 17
M  V30 18 1 5 18
M  V30 19 1 6 19
M  V30 20 1 6 20
M  V30 21 1 7 21
M  V30 22 1 7 22
M  V30 23 1 8 23
M  V30 24 1 9 24
M  V30 25 1 9 25
M  V30 END BOND
M  V30 END CTAB
M  END
