
     RDKit          3D

  0  0  0  0  0  0  0  0  0  0999 V3000
M  V30 BEGIN CTAB
M  V30 COUNTS 31 33 0 0 0
M  V30 BEGIN ATOM
M  V30 1 N -5.81567 0.910211 -1.05789 0
M  V30 2 C -4.57384 0.396894 -0.573001 0
M  V30 3 N -3.397 0.949452 -0.917349 0
M  V30 4 C -2.22491 0.464832 -0.459587 0
M  V30 5 C -1.01616 1.05748 -0.832694 0
M  V30 6 C 0.165007 0.547433 -0.354627 0
M  V30 7 C 0.184218 -0.542673 0.490123 0
M  V30 8 S 1.70567 -1.22665 1.12679 0
M  V30 9 C 3.13276 -0.345519 0.545955 0
M  V30 10 C 3.67176 0.734126 1.21424 0
M  V30 11 C 4.79832 1.4127 0.735509 0
M  V30 12 Cl 5.41095 2.76121 1.63932 0
M  V30 13 C 5.38802 1.00109 -0.426483 0
M  V30 14 Cl 6.7918 1.81606 -1.05937 0
M  V30 15 C 4.86943 -0.0696243 -1.10742 0
M  V30 16 C 3.74667 -0.74302 -0.626884 0
M  V30 17 C -0.988277 -1.13669 0.866855 0
M  V30 18 C -2.18003 -0.624205 0.38615 0
M  V30 19 C -3.39148 -1.19237 0.740128 0
M  V30 20 N -3.36124 -2.29858 1.59812 0
M  V30 21 N -4.54562 -0.665097 0.250635 0
M  V30 22 H -6.3504 1.63454 -0.527197 0
M  V30 23 H -6.24163 0.589263 -1.95449 0
M  V30 24 H -1.06771 1.91279 -1.49808 0
M  V30 25 H 1.09608 0.999791 -0.638814 0
M  V30 26 H 3.20489 1.05296 2.12581 0
M  V30 27 H 5.32676 -0.396629 -2.01781 0
M  V30 28 H 3.37344 -1.57764 -1.19308 0
M  V30 29 H -1.0122 -2.00767 1.53902 0
M  V30 30 H -3.31107 -2.15431 2.62146 0
M  V30 31 H -3.38853 -3.26016 1.22031 0
M  V30 END ATOM
M  V30 BEGIN BOND
M  V30 1 1 1 2
M  V30 2 2 2 3
M  V30 3 1 3 4
M  V30 4 2 4 5
M  V30 5 1 5 6
M  V30 6 2 6 7
M  V30 7 1 7 8
M  V30 8 1 8 9
M  V30 9 2 9 10
M  V30 10 1 10 11
M  V30 11 1 11 12
M  V30 12 2 11 13
M  V30 13 1 13 14
M  V30 14 1 13 15
M  V30 15 2 15 16
M  V30 16 1 7 17
M  V30 17 2 17 18
M  V30 18 1 18 19
M  V30 19 1 19 20
M  V30 20 2 19 21
M  V30 21 1 21 2
M  V30 22 1 18 4
M  V30 23 1 16 9
M  V30 24 1 1 22
M  V30 25 1 1 23
M  V30 26 1 5 24
M  V30 27 1 6 25
M  V30 28 1 10 26
M  V30 29 1 15 27
M  V30 30 1 16 28
M  V30 31 1 17 29
M  V30 32 1 20 30
M  V30 33 1 20 31
M  V30 END BOND
M  V30 END CTAB
M  END
