
     RDKit          3D

  0  0  0  0  0  0  0  0  0  0999 V3000
M  V30 BEGIN CTAB
M  V30 COUNTS 38 40 0 0 0
M  V30 BEGIN ATOM
M  V30 1 N 7.07723 0.428033 2.01159 0
M  V30 2 C 6.25043 0.318364 0.867153 0
M  V30 3 N 6.78811 0.271999 -0.29073 0
M  V30 4 O 8.15287 0.330224 -0.386522 0
M  V30 5 C 4.8003 0.256989 0.977078 0
M  V30 6 C 4.09205 0.298351 2.18347 0
M  V30 7 C 2.77188 0.214771 1.83592 0
M  V30 8 C 2.70704 0.12692 0.465676 0
M  V30 9 O 3.94948 0.156969 0.00729114 0
M  V30 10 C 1.53598 0.0188879 -0.390204 0
M  V30 11 C 1.49714 -0.0678067 -1.7613 0
M  V30 12 C 0.171472 -0.151734 -2.11029 0
M  V30 13 C -0.553319 -0.113256 -0.938152 0
M  V30 14 O 0.315463 -0.0122743 0.0333607 0
M  V30 15 C -1.99153 -0.172399 -0.801233 0
M  V30 16 C -2.56536 -0.122436 0.441485 0
M  V30 17 C -3.95922 -0.176549 0.626598 0
M  V30 18 C -4.78681 -0.28227 -0.451834 0
M  V30 19 C -4.21603 -0.333449 -1.7119 0
M  V30 20 C -2.84593 -0.27888 -1.87159 0
M  V30 21 C -6.2074 -0.339973 -0.304094 0
M  V30 22 N -6.99838 -0.451651 -1.50697 0
M  V30 23 N -6.83537 -0.30331 0.765552 0
M  V30 24 O -6.56501 -0.210321 2.06224 0
M  V30 25 H 7.13409 -0.33225 2.72758 0
M  V30 26 H 7.65987 1.27668 2.17786 0
M  V30 27 H 8.59861 0.639364 -1.23421 0
M  V30 28 H 4.57378 0.380706 3.14826 0
M  V30 29 H 1.94562 0.217914 2.51445 0
M  V30 30 H 2.38491 -0.0642167 -2.37758 0
M  V30 31 H -0.194583 -0.231339 -3.11836 0
M  V30 32 H -1.9121 -0.0387161 1.29708 0
M  V30 33 H -4.28796 -0.127633 1.66621 0
M  V30 34 H -4.88134 -0.41883 -2.58521 0
M  V30 35 H -2.44876 -0.322041 -2.87028 0
M  V30 36 H -7.3042 -1.36871 -1.80697 0
M  V30 37 H -7.21307 0.421055 -2.00406 0
M  V30 38 H -6.63996 -0.968698 2.71262 0
M  V30 END ATOM
M  V30 BEGIN BOND
M  V30 1 1 1 2
M  V30 2 2 2 3 CFG=2
M  V30 3 1 3 4
M  V30 4 1 2 5
M  V30 5 2 5 6
M  V30 6 1 6 7
M  V30 7 2 7 8
M  V30 8 1 8 9
M  V30 9 1 8 10
M  V30 10 2 10 11
M  V30 11 1 11 12
M  V30 12 2 12 13
M  V30 13 1 13 14
M  V30 14 1 13 15
M  V30 15 2 15 16
M  V30 16 1 16 17
M  V30 17 2 17 18
M  V30 18 1 18 19
M  V30 19 2 19 20
M  V30 20 1 18 21
M  V30 21 1 21 22
M  V30 22 2 21 23 CFG=2
M  V30 23 1 23 24
M  V30 24 1 9 5
M  V30 25 1 14 10
M  V30 26 1 20 15
M  V30 27 1 1 25
M  V30 28 1 1 26
M  V30 29 1 4 27
M  V30 30 1 6 28
M  V30 31 1 7 29
M  V30 32 1 11 30
M  V30 33 1 12 31
M  V30 34 1 16 32
M  V30 35 1 17 33
M  V30 36 1 19 34
M  V30 37 1 20 35
M  V30 38 1 22 36
M  V30 39 1 22 37
M  V30 40 1 24 38
M  V30 END BOND
M  V30 END CTAB
M  END
