
     RDKit          3D

  0  0  0  0  0  0  0  0  0  0999 V3000
M  V30 BEGIN CTAB
M  V30 COUNTS 36 37 0 0 0
M  V30 BEGIN ATOM
M  V30 1 O -0.196736 -1.92435 0.36321 0
M  V30 2 C -0.520534 -0.740958 0.13957 0
M  V30 3 C -1.91055 -0.341848 0.0681235 0
M  V30 4 C -2.35284 0.932941 -0.17178 0
M  V30 5 C -3.69466 1.28991 -0.235436 0
M  V30 6 N -4.09955 2.63567 -0.488864 0
M  V30 7 C -4.61489 0.285067 -0.0426587 0
M  V30 8 C -4.19692 -1.00439 0.200089 0
M  V30 9 C -2.86735 -1.33692 0.259158 0
M  V30 10 N -5.19261 -2.01002 0.393229 0
M  V30 11 N 0.486348 0.228076 -0.0475113 0
M  V30 12 C 1.86942 -0.174054 0.0245182 0
M  V30 13 C 2.61575 0.118281 -1.26217 0
M  V30 14 C 3.94808 -0.597037 -1.16795 0
M  V30 15 C 4.72861 0.0823405 -0.0507168 0
M  V30 16 C 3.97039 -0.0893837 1.24719 0
M  V30 17 C 2.58498 0.558601 1.15528 0
M  V30 18 H -1.63976 1.71597 -0.321969 0
M  V30 19 H -4.7605 2.9113 -1.22604 0
M  V30 20 H -3.70975 3.41158 0.1039 0
M  V30 21 H -5.66357 0.528305 -0.0856453 0
M  V30 22 H -2.59523 -2.36954 0.45374 0
M  V30 23 H -5.81581 -1.97061 1.24572 0
M  V30 24 H -5.29774 -2.77073 -0.302348 0
M  V30 25 H 0.318878 1.24072 -0.239217 0
M  V30 26 H 1.99203 -1.25767 0.229794 0
M  V30 27 H 2.86514 1.21214 -1.35498 0
M  V30 28 H 2.03851 -0.211535 -2.15133 0
M  V30 29 H 4.51324 -0.532135 -2.11846 0
M  V30 30 H 3.72437 -1.65259 -0.874862 0
M  V30 31 H 5.6929 -0.420504 0.05867 0
M  V30 32 H 4.81066 1.15267 -0.335552 0
M  V30 33 H 3.77156 -1.18456 1.3712 0
M  V30 34 H 4.49777 0.352477 2.08874 0
M  V30 35 H 2.64888 1.64003 0.979716 0
M  V30 36 H 2.05145 0.292757 2.09563 0
M  V30 END ATOM
M  V30 BEGIN BOND
M  V30 1 2 1 2
M  V30 2 1 2 3
M  V30 3 2 3 4
M  V30 4 1 4 5
M  V30 5 1 5 6
M  V30 6 2 5 7
M  V30 7 1 7 8
M  V30 8 2 8 9
M  V30 9 1 8 10
M  V30 10 1 2 11
M  V30 11 1 11 12
M  V30 12 1 12 13
M  V30 13 1 13 14
M  V30 14 1 14 15
M  V30 15 1 15 16
M  V30 16 1 16 17
M  V30 17 1 9 3
M  V30 18 1 17 12
M  V30 19 1 4 18
M  V30 20 1 6 19
M  V30 21 1 6 20
M  V30 22 1 7 21
M  V30 23 1 9 22
M  V30 24 1 10 23
M  V30 25 1 10 24
M  V30 26 1 11 25
M  V30 27 1 12 26
M  V30 28 1 13 27
M  V30 29 1 13 28
M  V30 30 1 14 29
M  V30 31 1 14 30
M  V30 32 1 15 31
M  V30 33 1 15 32
M  V30 34 1 16 33
M  V30 35 1 16 34
M  V30 36 1 17 35
M  V30 37 1 17 36
M  V30 END BOND
M  V30 END CTAB
M  END
