
     RDKit          3D

  0  0  0  0  0  0  0  0  0  0999 V3000
M  V30 BEGIN CTAB
M  V30 COUNTS 33 34 0 0 0
M  V30 BEGIN ATOM
M  V30 1 C 5.2098 0.579899 -0.674337 0
M  V30 2 C 4.44424 0.541575 0.648237 0
M  V30 3 C 3.08344 -0.0112489 0.412463 0
M  V30 4 C 2.05589 0.846574 0.0986902 0
M  V30 5 C 0.779946 0.35112 -0.124808 0
M  V30 6 C 0.496814 -0.99049 -0.042898 0
M  V30 7 C 1.53689 -1.83801 0.272278 0
M  V30 8 C 2.80948 -1.35763 0.49646 0
M  V30 9 O -0.75036 -1.52339 -0.254317 0
M  V30 10 C -1.932 -0.880427 -0.44017 0
M  V30 11 C -2.64889 -1.00192 -1.61985 0
M  V30 12 C -3.84888 -0.355331 -1.81817 0
M  V30 13 C -4.39001 0.452592 -0.828504 0
M  V30 14 C -3.66568 0.563845 0.340214 0
M  V30 15 C -2.45959 -0.0831317 0.546376 0
M  V30 16 N -1.80346 0.0817867 1.78398 0
M  V30 17 N -5.61643 1.13093 -0.995396 0
M  V30 18 H 6.11698 1.20897 -0.567377 0
M  V30 19 H 5.45755 -0.464385 -0.968125 0
M  V30 20 H 4.51215 1.001 -1.42934 0
M  V30 21 H 4.39931 1.57982 1.02675 0
M  V30 22 H 4.99081 -0.127473 1.33405 0
M  V30 23 H 2.26016 1.92607 0.028007 0
M  V30 24 H 0.0204027 1.07488 -0.375493 0
M  V30 25 H 1.35492 -2.90069 0.345983 0
M  V30 26 H 3.62813 -2.01396 0.743394 0
M  V30 27 H -2.2841 -1.61948 -2.43939 0
M  V30 28 H -4.42708 -0.439116 -2.73995 0
M  V30 29 H -4.0905 1.19678 1.11441 0
M  V30 30 H -1.68211 -0.704012 2.44383 0
M  V30 31 H -1.43438 1.01356 2.03721 0
M  V30 32 H -5.79266 1.64123 -1.87438 0
M  V30 33 H -6.3308 1.12006 -0.251722 0
M  V30 END ATOM
M  V30 BEGIN BOND
M  V30 1 1 1 2
M  V30 2 1 2 3
M  V30 3 2 3 4
M  V30 4 1 4 5
M  V30 5 2 5 6
M  V30 6 1 6 7
M  V30 7 2 7 8
M  V30 8 1 6 9
M  V30 9 1 9 10
M  V30 10 2 10 11
M  V30 11 1 11 12
M  V30 12 2 12 13
M  V30 13 1 13 14
M  V30 14 2 14 15
M  V30 15 1 15 16
M  V30 16 1 13 17
M  V30 17 1 8 3
M  V30 18 1 15 10
M  V30 19 1 1 18
M  V30 20 1 1 19
M  V30 21 1 1 20
M  V30 22 1 2 21
M  V30 23 1 2 22
M  V30 24 1 4 23
M  V30 25 1 5 24
M  V30 26 1 7 25
M  V30 27 1 8 26
M  V30 28 1 11 27
M  V30 29 1 12 28
M  V30 30 1 14 29
M  V30 31 1 16 30
M  V30 32 1 16 31
M  V30 33 1 17 32
M  V30 34 1 17 33
M  V30 END BOND
M  V30 END CTAB
M  END
