
     RDKit          3D

  0  0  0  0  0  0  0  0  0  0999 V3000
M  V30 BEGIN CTAB
M  V30 COUNTS 29 28 0 0 0
M  V30 BEGIN ATOM
M  V30 1 N -1.49122 -1.39598 -1.87846 0
M  V30 2 C -1.06794 -1.37487 -0.517859 0
M  V30 3 C -0.333871 -0.151145 -0.0809183 0
M  V30 4 C 0.0363815 -0.301488 1.37432 0
M  V30 5 N 0.876146 -1.43446 1.64846 0
M  V30 6 C -1.25694 1.0408 -0.180232 0
M  V30 7 C -0.620523 2.31721 0.237409 0
M  V30 8 C -1.09393 3.05174 1.26014 0
M  V30 9 C 0.842668 0.102338 -0.982918 0
M  V30 10 C 1.81658 -1.00328 -0.999694 0
M  V30 11 C 3.0587 -0.763857 -0.624449 0
M  V30 12 H -2.465 -1.79549 -1.99707 0
M  V30 13 H -1.49188 -0.483828 -2.35343 0
M  V30 14 H -0.478713 -2.2985 -0.306071 0
M  V30 15 H -1.9986 -1.43803 0.116149 0
M  V30 16 H 0.489457 0.657946 1.74751 0
M  V30 17 H -0.897865 -0.428142 1.93729 0
M  V30 18 H 0.312465 -2.30847 1.79826 0
M  V30 19 H 1.34016 -1.24312 2.58702 0
M  V30 20 H -2.16461 0.918528 0.443937 0
M  V30 21 H -1.64655 1.18916 -1.22341 0
M  V30 22 H 0.2477 2.66565 -0.298552 0
M  V30 23 H -1.96919 2.65983 1.7654 0
M  V30 24 H -0.618132 3.96178 1.53736 0
M  V30 25 H 1.36276 1.04142 -0.76578 0
M  V30 26 H 0.414287 0.142478 -2.02497 0
M  V30 27 H 1.55581 -1.99824 -1.30564 0
M  V30 28 H 3.41057 0.215696 -0.298916 0
M  V30 29 H 3.8313 -1.54568 -0.614875 0
M  V30 END ATOM
M  V30 BEGIN BOND
M  V30 1 1 1 2
M  V30 2 1 2 3
M  V30 3 1 3 4
M  V30 4 1 4 5
M  V30 5 1 3 6
M  V30 6 1 6 7
M  V30 7 2 7 8 CFG=2
M  V30 8 1 3 9
M  V30 9 1 9 10
M  V30 10 2 10 11 CFG=2
M  V30 11 1 1 12
M  V30 12 1 1 13
M  V30 13 1 2 14
M  V30 14 1 2 15
M  V30 15 1 4 16
M  V30 16 1 4 17
M  V30 17 1 5 18
M  V30 18 1 5 19
M  V30 19 1 6 20
M  V30 20 1 6 21
M  V30 21 1 7 22
M  V30 22 1 8 23
M  V30 23 1 8 24
M  V30 24 1 9 25
M  V30 25 1 9 26
M  V30 26 1 10 27
M  V30 27 1 11 28
M  V30 28 1 11 29
M  V30 END BOND
M  V30 END CTAB
M  END
