
     RDKit          3D

  0  0  0  0  0  0  0  0  0  0999 V3000
M  V30 BEGIN CTAB
M  V30 COUNTS 46 48 0 0 0
M  V30 BEGIN ATOM
M  V30 1 N -7.27249 -1.88398 1.32418 0
M  V30 2 C -6.7681 -0.808501 0.575608 0
M  V30 3 C -7.59921 0.0258732 -0.138563 0
M  V30 4 C -7.03768 1.06077 -0.850581 0
M  V30 5 N -7.87397 1.94641 -1.60345 0
M  V30 6 C -5.68223 1.2891 -0.873414 0
M  V30 7 C -4.86389 0.444112 -0.152873 0
M  V30 8 C -5.3894 -0.596977 0.568022 0
M  V30 9 C -3.40813 0.721872 -0.19012 0
M  V30 10 O -3.03625 1.89689 -0.504015 0
M  V30 11 N -2.52825 -0.309516 0.117055 0
M  V30 12 C -1.1167 -0.180965 0.130874 0
M  V30 13 C -0.428198 0.994628 0.197865 0
M  V30 14 C 0.975797 1.00009 0.18366 0
M  V30 15 C 1.72079 -0.15835 0.103611 0
M  V30 16 C 1.04998 -1.32676 0.0376257 0
M  V30 17 C -0.326284 -1.34391 0.0504592 0
M  V30 18 C 3.1937 -0.0506076 0.0949673 0
M  V30 19 C 4.00745 -1.05151 0.0247078 0
M  V30 20 C 5.42591 -1.15025 0.00710252 0
M  V30 21 O 5.83699 -2.40212 -0.125936 0
M  V30 22 C 6.47875 -0.164093 0.102413 0
M  V30 23 C 6.35295 1.13878 0.443384 0
M  V30 24 C 7.46546 1.99507 0.434636 0
M  V30 25 C 8.71826 1.5597 0.0864295 0
M  V30 26 C 8.8724 0.24161 -0.261991 0
M  V30 27 C 7.77104 -0.575849 -0.246829 0
M  V30 28 H -6.94163 -2.85386 1.14548 0
M  V30 29 H -7.98386 -1.74316 2.0709 0
M  V30 30 H -8.68363 -0.140894 -0.132302 0
M  V30 31 H -8.75615 2.25256 -1.18483 0
M  V30 32 H -7.58698 2.26428 -2.54576 0
M  V30 33 H -5.2494 2.11957 -1.44672 0
M  V30 34 H -4.76286 -1.27338 1.14904 0
M  V30 35 H -2.96088 -1.26089 0.354233 0
M  V30 36 H -0.925182 1.94754 0.278486 0
M  V30 37 H 1.49657 1.94868 0.237543 0
M  V30 38 H 1.54352 -2.28546 -0.0270587 0
M  V30 39 H -0.89152 -2.27883 -0.0023348 0
M  V30 40 H 3.62032 0.933317 0.124414 0
M  V30 41 H 3.44315 -2.03698 -0.0326572 0
M  V30 42 H 5.42521 1.53549 0.752783 0
M  V30 43 H 7.35433 3.03873 0.708483 0
M  V30 44 H 9.57323 2.24252 0.0851531 0
M  V30 45 H 9.84687 -0.145888 -0.543931 0
M  V30 46 H 7.90021 -1.61612 -0.525752 0
M  V30 END ATOM
M  V30 BEGIN BOND
M  V30 1 1 1 2
M  V30 2 2 2 3
M  V30 3 1 3 4
M  V30 4 1 4 5
M  V30 5 2 4 6
M  V30 6 1 6 7
M  V30 7 2 7 8
M  V30 8 1 7 9
M  V30 9 2 9 10
M  V30 10 1 9 11
M  V30 11 1 11 12
M  V30 12 2 12 13
M  V30 13 1 13 14
M  V30 14 2 14 15
M  V30 15 1 15 16
M  V30 16 2 16 17
M  V30 17 1 15 18
M  V30 18 2 18 19
M  V30 19 1 19 20
M  V30 20 2 20 21
M  V30 21 1 20 22
M  V30 22 2 22 23
M  V30 23 1 23 24
M  V30 24 2 24 25
M  V30 25 1 25 26
M  V30 26 2 26 27
M  V30 27 1 8 2
M  V30 28 1 17 12
M  V30 29 1 27 22
M  V30 30 1 1 28
M  V30 31 1 1 29
M  V30 32 1 3 30
M  V30 33 1 5 31
M  V30 34 1 5 32
M  V30 35 1 6 33
M  V30 36 1 8 34
M  V30 37 1 11 35
M  V30 38 1 13 36
M  V30 39 1 14 37
M  V30 40 1 16 38
M  V30 41 1 17 39
M  V30 42 1 18 40
M  V30 43 1 19 41
M  V30 44 1 23 42
M  V30 45 1 24 43
M  V30 46 1 25 44
M  V30 47 1 26 45
M  V30 48 1 27 46
M  V30 END BOND
M  V30 END CTAB
M  END
