
     RDKit          3D

  0  0  0  0  0  0  0  0  0  0999 V3000
M  V30 BEGIN CTAB
M  V30 COUNTS 43 44 0 0 0
M  V30 BEGIN ATOM
M  V30 1 N -5.80038 0.203051 -2.26126 0
M  V30 2 C -5.652 -1.13669 -1.7783 0
M  V30 3 N -6.39639 -2.08454 -2.28312 0
M  V30 4 C -4.68574 -1.41851 -0.743457 0
M  V30 5 C -4.51655 -2.70647 -0.252073 0
M  V30 6 C -3.61754 -2.99062 0.716402 0
M  V30 7 C -2.82404 -1.97741 1.25576 0
M  V30 8 O -1.91725 -2.25646 2.23901 0
M  V30 9 C -1.03937 -1.35823 2.81182 0
M  V30 10 C -0.00643774 -0.901389 1.84506 0
M  V30 11 C 0.944908 0.13399 2.49931 0
M  V30 12 O 1.8361 0.516222 1.64252 0
M  V30 13 C 2.72608 0.901875 0.796654 0
M  V30 14 C 2.71401 0.364669 -0.499175 0
M  V30 15 C 3.6478 0.764351 -1.39799 0
M  V30 16 C 4.6169 1.68558 -1.08578 0
M  V30 17 C 4.61648 2.19836 0.175477 0
M  V30 18 C 3.71459 1.85226 1.14058 0
M  V30 19 C 5.59822 2.07918 -2.09246 0
M  V30 20 N 6.63019 3.01739 -1.83609 0
M  V30 21 N 5.55136 1.56801 -3.26333 0
M  V30 22 C -2.98974 -0.70441 0.774343 0
M  V30 23 C -3.91106 -0.426677 -0.216554 0
M  V30 24 H -6.26931 0.921225 -1.63213 0
M  V30 25 H -5.47044 0.510959 -3.20072 0
M  V30 26 H -7.09461 -1.85486 -3.03636 0
M  V30 27 H -5.16265 -3.47174 -0.70754 0
M  V30 28 H -3.49255 -3.98008 1.08942 0
M  V30 29 H -0.507973 -1.77341 3.70729 0
M  V30 30 H -1.57004 -0.449644 3.19903 0
M  V30 31 H 0.647269 -1.78906 1.56435 0
M  V30 32 H -0.342214 -0.476642 0.912564 0
M  V30 33 H 1.30818 -0.382802 3.45287 0
M  V30 34 H 0.22734 0.958994 2.8407 0
M  V30 35 H 1.9696 -0.353781 -0.7645 0
M  V30 36 H 3.65491 0.359417 -2.40624 0
M  V30 37 H 5.37689 2.93551 0.456144 0
M  V30 38 H 3.71892 2.26633 2.14971 0
M  V30 39 H 6.51754 3.98553 -2.20545 0
M  V30 40 H 7.48109 2.77122 -1.30053 0
M  V30 41 H 6.17882 1.7582 -4.06092 0
M  V30 42 H -2.42058 0.144087 1.1864 0
M  V30 43 H -3.99039 0.596994 -0.55236 0
M  V30 END ATOM
M  V30 BEGIN BOND
M  V30 1 1 1 2
M  V30 2 2 2 3 CFG=2
M  V30 3 1 2 4
M  V30 4 2 4 5
M  V30 5 1 5 6
M  V30 6 2 6 7
M  V30 7 1 7 8
M  V30 8 1 8 9
M  V30 9 1 9 10
M  V30 10 1 10 11
M  V30 11 1 11 12
M  V30 12 1 12 13
M  V30 13 2 13 14
M  V30 14 1 14 15
M  V30 15 2 15 16
M  V30 16 1 16 17
M  V30 17 2 17 18
M  V30 18 1 16 19
M  V30 19 1 19 20
M  V30 20 2 19 21 CFG=2
M  V30 21 1 7 22
M  V30 22 2 22 23
M  V30 23 1 23 4
M  V30 24 1 18 13
M  V30 25 1 1 24
M  V30 26 1 1 25
M  V30 27 1 3 26
M  V30 28 1 5 27
M  V30 29 1 6 28
M  V30 30 1 9 29
M  V30 31 1 9 30
M  V30 32 1 10 31
M  V30 33 1 10 32
M  V30 34 1 11 33
M  V30 35 1 11 34
M  V30 36 1 14 35
M  V30 37 1 15 36
M  V30 38 1 17 37
M  V30 39 1 18 38
M  V30 40 1 20 39
M  V30 41 1 20 40
M  V30 42 1 21 41
M  V30 43 1 22 42
M  V30 44 1 23 43
M  V30 END BOND
M  V30 END CTAB
M  END
