
     RDKit          3D

  0  0  0  0  0  0  0  0  0  0999 V3000
M  V30 BEGIN CTAB
M  V30 COUNTS 16 16 0 0 0
M  V30 BEGIN ATOM
M  V30 1 N 1.95869 0.778665 0.42308 0
M  V30 2 C 1.01969 0.105297 -0.401215 0
M  V30 3 N 1.32731 -0.133259 -1.62685 0
M  V30 4 C -0.290338 -0.314358 0.141988 0
M  V30 5 N -0.242532 -1.22633 1.24724 0
M  V30 6 C -1.37829 0.736647 0.0758588 0
M  V30 7 C -1.4542 -0.473264 -0.774882 0
M  V30 8 H 2.96049 0.522203 0.304242 0
M  V30 9 H 1.61055 1.48809 1.09955 0
M  V30 10 H 2.23869 0.151507 -2.02818 0
M  V30 11 H -0.978006 -1.96306 1.21585 0
M  V30 12 H -0.1698 -0.743344 2.16454 0
M  V30 13 H -1.13813 1.7102 -0.417539 0
M  V30 14 H -1.98247 0.851485 0.997921 0
M  V30 15 H -1.27248 -0.3197 -1.86356 0
M  V30 16 H -2.20919 -1.24141 -0.55805 0
M  V30 END ATOM
M  V30 BEGIN BOND
M  V30 1 1 1 2
M  V30 2 2 2 3 CFG=2
M  V30 3 1 2 4
M  V30 4 1 4 5
M  V30 5 1 4 6
M  V30 6 1 6 7
M  V30 7 1 7 4
M  V30 8 1 1 8
M  V30 9 1 1 9
M  V30 10 1 3 10
M  V30 11 1 5 11
M  V30 12 1 5 12
M  V30 13 1 6 13
M  V30 14 1 6 14
M  V30 15 1 7 15
M  V30 16 1 7 16
M  V30 END BOND
M  V30 END CTAB
M  END
