
     RDKit          3D

  0  0  0  0  0  0  0  0  0  0999 V3000
M  V30 BEGIN CTAB
M  V30 COUNTS 29 28 0 0 0
M  V30 BEGIN ATOM
M  V30 1 C 1.21494 2.30042 -0.907026 0
M  V30 2 C 1.3296 1.33001 0.236466 0
M  V30 3 N 0.740547 0.0548406 0.0294207 0
M  V30 4 C -0.638502 -0.0673388 0.108926 0
M  V30 5 C -1.19993 -1.35689 0.614381 0
M  V30 6 N -2.66381 -1.21905 0.603427 0
M  V30 7 C -1.24352 0.149041 -1.28854 0
M  V30 8 C -1.23055 1.02082 1.01414 0
M  V30 9 S 1.68844 -1.0363 -0.761092 0
M  V30 10 O 2.62892 -0.345789 -1.71463 0
M  V30 11 O 0.999724 -2.12293 -1.52975 0
M  V30 12 N 2.69922 -1.87121 0.402433 0
M  V30 13 H 0.225367 2.4366 -1.32115 0
M  V30 14 H 1.91221 2.03021 -1.74973 0
M  V30 15 H 1.53852 3.29653 -0.480318 0
M  V30 16 H 0.985182 1.81697 1.19684 0
M  V30 17 H 2.41841 1.18643 0.414527 0
M  V30 18 H -0.886512 -1.61228 1.63297 0
M  V30 19 H -1.02463 -2.20826 -0.113214 0
M  V30 20 H -3.10913 -1.73737 1.37838 0
M  V30 21 H -3.08001 -1.57636 -0.280989 0
M  V30 22 H -1.90523 1.0237 -1.29601 0
M  V30 23 H -0.421102 0.250685 -2.05166 0
M  V30 24 H -1.83382 -0.723526 -1.63139 0
M  V30 25 H -2.33568 0.908938 1.08284 0
M  V30 26 H -1.03871 2.0263 0.640349 0
M  V30 27 H -0.862879 0.843658 2.06345 0
M  V30 28 H 2.98748 -2.77982 0.0249317 0
M  V30 29 H 2.10544 -2.01805 1.24185 0
M  V30 END ATOM
M  V30 BEGIN BOND
M  V30 1 1 1 2
M  V30 2 1 2 3
M  V30 3 1 3 4
M  V30 4 1 4 5
M  V30 5 1 5 6
M  V30 6 1 4 7
M  V30 7 1 4 8
M  V30 8 1 3 9
M  V30 9 2 9 10
M  V30 10 2 9 11
M  V30 11 1 9 12
M  V30 12 1 1 13
M  V30 13 1 1 14
M  V30 14 1 1 15
M  V30 15 1 2 16
M  V30 16 1 2 17
M  V30 17 1 5 18
M  V30 18 1 5 19
M  V30 19 1 6 20
M  V30 20 1 6 21
M  V30 21 1 7 22
M  V30 22 1 7 23
M  V30 23 1 7 24
M  V30 24 1 8 25
M  V30 25 1 8 26
M  V30 26 1 8 27
M  V30 27 1 12 28
M  V30 28 1 12 29
M  V30 END BOND
M  V30 END CTAB
M  END
