
     RDKit          3D

  0  0  0  0  0  0  0  0  0  0999 V3000
M  V30 BEGIN CTAB
M  V30 COUNTS 39 40 0 0 0
M  V30 BEGIN ATOM
M  V30 1 O -1.10716 -1.41543 -0.821844 0
M  V30 2 C -0.433939 -0.373599 -0.940607 0
M  V30 3 N 0.81473 -0.235546 -0.279373 0
M  V30 4 C 1.34525 -1.29515 0.551176 0
M  V30 5 C 2.83402 -1.27429 0.677775 0
M  V30 6 N 3.41271 0.0224733 0.779933 0
M  V30 7 C 2.47049 1.10447 0.769295 0
M  V30 8 C 1.57124 0.967073 -0.431899 0
M  V30 9 S 4.76061 0.262835 -0.252128 0
M  V30 10 O 4.32616 -0.0944641 -1.65872 0
M  V30 11 O 5.27118 1.65075 -0.229901 0
M  V30 12 C 6.0196 -0.913403 0.223319 0
M  V30 13 C -0.925202 0.733266 -1.77164 0
M  V30 14 S -2.54298 0.304711 -2.44617 0
M  V30 15 C -3.72326 0.252942 -1.10813 0
M  V30 16 N -4.40724 1.35102 -0.720569 0
M  V30 17 C -5.31157 1.36169 0.272887 0
M  V30 18 N -5.99065 2.54552 0.627118 0
M  V30 19 N -5.52954 0.193068 0.903434 0
M  V30 20 C -4.87433 -0.947432 0.561989 0
M  V30 21 N -3.99183 -0.870829 -0.436656 0
M  V30 22 N -5.10735 -2.17049 1.22756 0
M  V30 23 H 0.86421 -1.19368 1.54543 0
M  V30 24 H 0.985996 -2.25342 0.121761 0
M  V30 25 H 3.26128 -1.78104 -0.212292 0
M  V30 26 H 3.13311 -1.87397 1.56178 0
M  V30 27 H 1.86461 1.18703 1.66948 0
M  V30 28 H 3.06645 2.04724 0.608632 0
M  V30 29 H 2.12683 0.978974 -1.39062 0
M  V30 30 H 0.93084 1.8759 -0.445861 0
M  V30 31 H 6.95592 -0.749824 -0.353352 0
M  V30 32 H 5.66266 -1.93583 0.0156367 0
M  V30 33 H 6.2823 -0.75162 1.29234 0
M  V30 34 H -0.187135 0.955593 -2.57445 0
M  V30 35 H -0.980702 1.63094 -1.10218 0
M  V30 36 H -6.72724 2.91522 0.00911991 0
M  V30 37 H -5.74804 3.03507 1.50034 0
M  V30 38 H -6.06587 -2.47659 1.46054 0
M  V30 39 H -4.30615 -2.76918 1.48603 0
M  V30 END ATOM
M  V30 BEGIN BOND
M  V30 1 2 1 2
M  V30 2 1 2 3
M  V30 3 1 3 4
M  V30 4 1 4 5
M  V30 5 1 5 6
M  V30 6 1 6 7
M  V30 7 1 7 8
M  V30 8 1 6 9
M  V30 9 2 9 10
M  V30 10 2 9 11
M  V30 11 1 9 12
M  V30 12 1 2 13
M  V30 13 1 13 14
M  V30 14 1 14 15
M  V30 15 2 15 16
M  V30 16 1 16 17
M  V30 17 1 17 18
M  V30 18 2 17 19
M  V30 19 1 19 20
M  V30 20 2 20 21
M  V30 21 1 20 22
M  V30 22 1 8 3
M  V30 23 1 21 15
M  V30 24 1 4 23
M  V30 25 1 4 24
M  V30 26 1 5 25
M  V30 27 1 5 26
M  V30 28 1 7 27
M  V30 29 1 7 28
M  V30 30 1 8 29
M  V30 31 1 8 30
M  V30 32 1 12 31
M  V30 33 1 12 32
M  V30 34 1 12 33
M  V30 35 1 13 34
M  V30 36 1 13 35
M  V30 37 1 18 36
M  V30 38 1 18 37
M  V30 39 1 22 38
M  V30 40 1 22 39
M  V30 END BOND
M  V30 END CTAB
M  END
