
     RDKit          3D

  0  0  0  0  0  0  0  0  0  0999 V3000
M  V30 BEGIN CTAB
M  V30 COUNTS 23 23 0 0 0
M  V30 BEGIN ATOM
M  V30 1 N -3.76878 -0.31061 0.453002 0
M  V30 2 C -2.35498 -0.440308 0.329022 0
M  V30 3 C -1.72057 -1.65415 0.495619 0
M  V30 4 C -0.351237 -1.75975 0.371706 0
M  V30 5 C 0.451829 -0.675356 0.0786025 0
M  V30 6 C -0.185834 0.538249 -0.0876095 0
M  V30 7 C -1.55365 0.644124 0.0360932 0
M  V30 8 N -2.17509 1.91124 -0.142124 0
M  V30 9 O 1.82921 -0.817778 -0.0390794 0
M  V30 10 C 2.57952 0.323222 -0.337513 0
M  V30 11 C 4.05913 0.0336657 -0.437663 0
M  V30 12 F 4.37045 -0.877354 -1.40514 0
M  V30 13 F 4.67138 1.23067 -0.792993 0
M  V30 14 F 4.59271 -0.350231 0.75779 0
M  V30 15 H -4.32386 -1.00573 0.999747 0
M  V30 16 H -4.27841 0.463834 0.0118726 0
M  V30 17 H -2.32904 -2.53439 0.728968 0
M  V30 18 H 0.167876 -2.71338 0.500414 0
M  V30 19 H 0.444579 1.39618 -0.318973 0
M  V30 20 H -1.83046 2.5455 -0.875426 0
M  V30 21 H -2.96983 2.15113 0.489236 0
M  V30 22 H 2.19817 0.785083 -1.27014 0
M  V30 23 H 2.4769 1.11614 0.454585 0
M  V30 END ATOM
M  V30 BEGIN BOND
M  V30 1 1 1 2
M  V30 2 2 2 3
M  V30 3 1 3 4
M  V30 4 2 4 5
M  V30 5 1 5 6
M  V30 6 2 6 7
M  V30 7 1 7 8
M  V30 8 1 5 9
M  V30 9 1 9 10
M  V30 10 1 10 11
M  V30 11 1 11 12
M  V30 12 1 11 13
M  V30 13 1 11 14
M  V30 14 1 7 2
M  V30 15 1 1 15
M  V30 16 1 1 16
M  V30 17 1 3 17
M  V30 18 1 4 18
M  V30 19 1 6 19
M  V30 20 1 8 20
M  V30 21 1 8 21
M  V30 22 1 10 22
M  V30 23 1 10 23
M  V30 END BOND
M  V30 END CTAB
M  END
