
     RDKit          3D

  0  0  0  0  0  0  0  0  0  0999 V3000
M  V30 BEGIN CTAB
M  V30 COUNTS 15 15 0 0 0
M  V30 BEGIN ATOM
M  V30 1 N 0.618764 1.81984 0.0123719 0
M  V30 2 C 0.423756 0.413921 0.0126961 0
M  V30 3 C -0.87861 -0.0483633 -0.0343617 0
M  V30 4 N -1.96315 0.856387 -0.0806313 0
M  V30 5 C -1.04691 -1.41329 -0.0332668 0
M  V30 6 N 0.0014647 -2.26463 0.011348 0
M  V30 7 C 1.27705 -1.83933 0.0575969 0
M  V30 8 C 1.47883 -0.476382 0.0577814 0
M  V30 9 I 3.43473 0.241401 0.128349 0
M  V30 10 H 0.225608 2.39241 -0.753942 0
M  V30 11 H 1.16179 2.25224 0.795425 0
M  V30 12 H -1.80086 1.88426 -0.0363313 0
M  V30 13 H -2.95329 0.543267 -0.159466 0
M  V30 14 H -2.04818 -1.7953 -0.0693232 0
M  V30 15 H 2.06901 -2.56643 0.0917546 0
M  V30 END ATOM
M  V30 BEGIN BOND
M  V30 1 1 1 2
M  V30 2 2 2 3
M  V30 3 1 3 4
M  V30 4 1 3 5
M  V30 5 2 5 6
M  V30 6 1 6 7
M  V30 7 2 7 8
M  V30 8 1 8 9
M  V30 9 1 8 2
M  V30 10 1 1 10
M  V30 11 1 1 11
M  V30 12 1 4 12
M  V30 13 1 4 13
M  V30 14 1 5 14
M  V30 15 1 7 15
M  V30 END BOND
M  V30 END CTAB
M  END
