
     RDKit          3D

  0  0  0  0  0  0  0  0  0  0999 V3000
M  V30 BEGIN CTAB
M  V30 COUNTS 73 76 0 0 0
M  V30 BEGIN ATOM
M  V30 1 C 6.66817 -1.07526 1.23972 0
M  V30 2 N 5.2861 -1.0926 1.66188 0
M  V30 3 C 4.41143 -0.949756 0.515432 0 CFG=1
M  V30 4 C 4.61098 -2.13287 -0.414236 0
M  V30 5 C 3.69052 -2.10813 -1.5838 0 CFG=1
M  V30 6 N 3.71474 -3.451 -2.18366 0
M  V30 7 C 2.26836 -1.79013 -1.27051 0 CFG=2
M  V30 8 O 1.66323 -1.37439 -2.47964 0
M  V30 9 C 2.14899 -0.646572 -0.315601 0 CFG=1
M  V30 10 O 0.849725 -0.308358 -0.0341526 0
M  V30 11 C 0.605563 1.01107 -0.434871 0 CFG=2
M  V30 12 O 0.333243 1.81903 0.693621 0
M  V30 13 C 0.716427 3.13336 0.354484 0 CFG=2
M  V30 14 C 0.481176 4.08418 1.48098 0
M  V30 15 O -0.835585 4.16344 1.87712 0
M  V30 16 C 0.0234838 3.4879 -0.918794 0 CFG=2
M  V30 17 O -0.46421 4.78709 -0.912602 0
M  V30 18 C -1.09537 2.52906 -1.26623 0 CFG=2
M  V30 19 O -1.9514 2.3114 -0.21385 0
M  V30 20 C -2.49702 1.01338 -0.398834 0
M  V30 21 O -1.57814 0.324004 -1.18221 0
M  V30 22 C -0.500138 1.12591 -1.43795 0 CFG=2
M  V30 23 O -2.529 0.448403 0.828376 0
M  V30 24 C -3.41496 -0.527331 1.12701 0 CFG=2
M  V30 25 C -2.79603 -1.91177 1.23907 0
M  V30 26 N -2.16248 -2.36326 0.04734 0
M  V30 27 C -3.73351 -2.90845 1.86606 0
M  V30 28 O -4.77934 -3.29993 1.0701 0
M  V30 29 C -4.67917 -0.519603 0.302548 0 CFG=2
M  V30 30 O -4.56638 -1.2008 -0.892851 0
M  V30 31 C -4.8972 0.953581 -0.0785327 0 CFG=2
M  V30 32 O -6.16587 1.16808 -0.583846 0
M  V30 33 C -3.8045 1.23448 -1.0897 0 CFG=1
M  V30 34 O -3.99015 2.54177 -1.5368 0
M  V30 35 C 2.95633 -0.960259 0.926306 0 CFG=2
M  V30 36 O 2.69902 -0.0570763 1.95236 0
M  V30 37 H 7.05542 -2.12405 1.27521 0
M  V30 38 H 6.81035 -0.698926 0.213017 0
M  V30 39 H 7.30454 -0.46122 1.90855 0
M  V30 40 H 5.13039 -0.250495 2.27038 0
M  V30 41 H 4.66799 -0.0215461 -0.0341938 0
M  V30 42 H 5.66155 -2.04184 -0.804953 0
M  V30 43 H 4.57397 -3.08979 0.147946 0
M  V30 44 H 4.07841 -1.41105 -2.36769 0
M  V30 45 H 4.69688 -3.7583 -2.35871 0
M  V30 46 H 3.21505 -4.10693 -1.52413 0
M  V30 47 H 1.74197 -2.66514 -0.845825 0
M  V30 48 H 1.05544 -2.09017 -2.76078 0
M  V30 49 H 2.67759 0.228617 -0.79638 0
M  V30 50 H 1.52467 1.4455 -0.880766 0
M  V30 51 H 1.83353 3.0699 0.208357 0
M  V30 52 H 0.789938 5.09369 1.14051 0
M  V30 53 H 1.16106 3.80532 2.31263 0
M  V30 54 H -1.21109 5.0939 1.79368 0
M  V30 55 H 0.768569 3.42394 -1.75547 0
M  V30 56 H -1.34762 4.88874 -1.32218 0
M  V30 57 H -1.56262 2.86022 -2.19008 0
M  V30 58 H -0.166835 1.0679 -2.47896 0
M  V30 59 H -3.77077 -0.316229 2.18512 0
M  V30 60 H -1.96653 -1.78078 2.00017 0
M  V30 61 H -1.34786 -2.98884 0.227294 0
M  V30 62 H -2.83695 -2.93674 -0.521082 0
M  V30 63 H -3.16769 -3.79803 2.18127 0
M  V30 64 H -4.1499 -2.45199 2.78586 0
M  V30 65 H -4.57376 -4.07095 0.48825 0
M  V30 66 H -5.57437 -0.8425 0.829171 0
M  V30 67 H -5.30591 -0.871726 -1.48103 0
M  V30 68 H -4.66522 1.5541 0.817875 0
M  V30 69 H -6.48238 2.03812 -0.239134 0
M  V30 70 H -3.94808 0.582105 -1.9756 0
M  V30 71 H -4.91212 2.60475 -1.87292 0
M  V30 72 H 2.70695 -1.96324 1.31034 0
M  V30 73 H 2.84839 -0.474897 2.85174 0
M  V30 END ATOM
M  V30 BEGIN BOND
M  V30 1 1 1 2
M  V30 2 1 2 3
M  V30 3 1 3 4
M  V30 4 1 4 5
M  V30 5 1 5 6
M  V30 6 1 5 7
M  V30 7 1 7 8
M  V30 8 1 7 9
M  V30 9 1 9 10
M  V30 10 1 10 11
M  V30 11 1 11 12
M  V30 12 1 12 13
M  V30 13 1 13 14
M  V30 14 1 14 15
M  V30 15 1 13 16
M  V30 16 1 16 17
M  V30 17 1 16 18
M  V30 18 1 18 19
M  V30 19 1 19 20
M  V30 20 1 20 21
M  V30 21 1 21 22
M  V30 22 1 20 23
M  V30 23 1 23 24
M  V30 24 1 24 25
M  V30 25 1 25 26
M  V30 26 1 25 27
M  V30 27 1 27 28
M  V30 28 1 24 29
M  V30 29 1 29 30
M  V30 30 1 29 31
M  V30 31 1 31 32
M  V30 32 1 31 33
M  V30 33 1 33 34
M  V30 34 1 9 35
M  V30 35 1 35 36
M  V30 36 1 35 3
M  V30 37 1 22 11
M  V30 38 1 22 18
M  V30 39 1 33 20
M  V30 40 1 1 37
M  V30 41 1 1 38
M  V30 42 1 1 39
M  V30 43 1 2 40
M  V30 44 1 3 41 CFG=3
M  V30 45 1 4 42
M  V30 46 1 4 43
M  V30 47 1 5 44 CFG=3
M  V30 48 1 6 45
M  V30 49 1 6 46
M  V30 50 1 7 47 CFG=1
M  V30 51 1 8 48
M  V30 52 1 9 49 CFG=3
M  V30 53 1 11 50 CFG=3
M  V30 54 1 13 51 CFG=3
M  V30 55 1 14 52
M  V30 56 1 14 53
M  V30 57 1 15 54
M  V30 58 1 16 55 CFG=3
M  V30 59 1 17 56
M  V30 60 1 18 57 CFG=3
M  V30 61 1 22 58 CFG=3
M  V30 62 1 24 59 CFG=1
M  V30 63 1 25 60
M  V30 64 1 26 61
M  V30 65 1 26 62
M  V30 66 1 27 63
M  V30 67 1 27 64
M  V30 68 1 28 65
M  V30 69 1 29 66 CFG=1
M  V30 70 1 30 67
M  V30 71 1 31 68 CFG=1
M  V30 72 1 32 69
M  V30 73 1 33 70 CFG=3
M  V30 74 1 34 71
M  V30 75 1 35 72 CFG=1
M  V30 76 1 36 73
M  V30 END BOND
M  V30 END CTAB
M  END
