
     RDKit          3D

  0  0  0  0  0  0  0  0  0  0999 V3000
M  V30 BEGIN CTAB
M  V30 COUNTS 56 59 0 0 0
M  V30 BEGIN ATOM
M  V30 1 C 1.72833 1.36749 -0.948145 0
M  V30 2 C 2.36876 0.374188 -0.0400461 0 CFG=1
M  V30 3 N 2.27172 -0.989103 -0.466723 0
M  V30 4 C 1.07747 -1.71681 -0.63165 0
M  V30 5 N 1.12701 -2.9955 -1.04292 0
M  V30 6 C 0.0475345 -3.77618 -1.22719 0
M  V30 7 N 0.132365 -5.12372 -1.6626 0
M  V30 8 N -1.17549 -3.21994 -0.975947 0
M  V30 9 C -1.27014 -1.94413 -0.562867 0
M  V30 10 N -0.151367 -1.22066 -0.399237 0
M  V30 11 C -2.6031 -1.41472 -0.313532 0
M  V30 12 C -3.74826 -2.12288 -0.470844 0
M  V30 13 C -4.97648 -1.52593 -0.206202 0
M  V30 14 C -5.08289 -0.225005 0.215836 0
M  V30 15 C -6.39655 0.409664 0.497543 0
M  V30 16 C -6.98388 1.08106 -0.724831 0 CFG=2
M  V30 17 N -6.05332 2.10245 -1.1614 0
M  V30 18 C -8.23583 1.73533 -0.314229 0
M  V30 19 O -8.36203 3.10276 -0.386117 0
M  V30 20 O -9.18779 1.04766 0.101148 0
M  V30 21 C -3.90917 0.484914 0.372002 0
M  V30 22 C -2.68713 -0.0935822 0.113617 0
M  V30 23 C 3.78517 0.738363 0.266764 0
M  V30 24 C 4.61129 -0.0717844 1.00268 0
M  V30 25 C 5.92668 0.260073 1.29006 0
M  V30 26 C 6.43579 1.45159 0.821587 0
M  V30 27 C 7.7557 1.83103 1.08473 0
M  V30 28 C 8.55727 0.98241 1.83298 0
M  V30 29 C 8.06968 -0.215502 2.3126 0
M  V30 30 C 6.76335 -0.549614 2.02958 0
M  V30 31 C 5.63786 2.27699 0.0873731 0
M  V30 32 C 4.31223 1.92588 -0.193158 0
M  V30 33 H 0.670411 1.10853 -1.08947 0
M  V30 34 H 1.73337 2.35255 -0.399539 0
M  V30 35 H 2.21958 1.44128 -1.93673 0
M  V30 36 H 1.77874 0.427355 0.926897 0
M  V30 37 H 3.18654 -1.48217 -0.674021 0
M  V30 38 H -0.383049 -5.90864 -1.25261 0
M  V30 39 H 0.778544 -5.31157 -2.46862 0
M  V30 40 H -3.67977 -3.15166 -0.803606 0
M  V30 41 H -5.88878 -2.08852 -0.331035 0
M  V30 42 H -6.28734 1.17702 1.29701 0
M  V30 43 H -7.13128 -0.330852 0.88189 0
M  V30 44 H -7.15648 0.315643 -1.51516 0
M  V30 45 H -6.13186 2.95563 -0.586173 0
M  V30 46 H -6.36739 2.39398 -2.13575 0
M  V30 47 H -8.19638 3.67143 0.422199 0
M  V30 48 H -3.98402 1.51553 0.705779 0
M  V30 49 H -1.78875 0.493419 0.247093 0
M  V30 50 H 4.2214 -1.00707 1.37391 0
M  V30 51 H 8.1543 2.7718 0.71362 0
M  V30 52 H 9.57837 1.22709 2.06324 0
M  V30 53 H 8.72807 -0.86324 2.90034 0
M  V30 54 H 6.37736 -1.4844 2.40187 0
M  V30 55 H 6.06601 3.20905 -0.268426 0
M  V30 56 H 3.7176 2.60103 -0.773563 0
M  V30 END ATOM
M  V30 BEGIN BOND
M  V30 1 1 1 2
M  V30 2 1 2 3
M  V30 3 1 3 4
M  V30 4 2 4 5
M  V30 5 1 5 6
M  V30 6 1 6 7
M  V30 7 2 6 8
M  V30 8 1 8 9
M  V30 9 2 9 10
M  V30 10 1 9 11
M  V30 11 2 11 12
M  V30 12 1 12 13
M  V30 13 2 13 14
M  V30 14 1 14 15
M  V30 15 1 15 16
M  V30 16 1 16 17
M  V30 17 1 16 18
M  V30 18 1 18 19
M  V30 19 2 18 20
M  V30 20 1 14 21
M  V30 21 2 21 22
M  V30 22 1 2 23
M  V30 23 2 23 24
M  V30 24 1 24 25
M  V30 25 2 25 26
M  V30 26 1 26 27
M  V30 27 2 27 28
M  V30 28 1 28 29
M  V30 29 2 29 30
M  V30 30 1 26 31
M  V30 31 2 31 32
M  V30 32 1 10 4
M  V30 33 1 22 11
M  V30 34 1 32 23
M  V30 35 1 30 25
M  V30 36 1 1 33
M  V30 37 1 1 34
M  V30 38 1 1 35
M  V30 39 1 2 36 CFG=1
M  V30 40 1 3 37
M  V30 41 1 7 38
M  V30 42 1 7 39
M  V30 43 1 12 40
M  V30 44 1 13 41
M  V30 45 1 15 42
M  V30 46 1 15 43
M  V30 47 1 16 44 CFG=3
M  V30 48 1 17 45
M  V30 49 1 17 46
M  V30 50 1 19 47
M  V30 51 1 21 48
M  V30 52 1 22 49
M  V30 53 1 24 50
M  V30 54 1 27 51
M  V30 55 1 28 52
M  V30 56 1 29 53
M  V30 57 1 30 54
M  V30 58 1 31 55
M  V30 59 1 32 56
M  V30 END BOND
M  V30 END CTAB
M  END
