
     RDKit          3D

  0  0  0  0  0  0  0  0  0  0999 V3000
M  V30 BEGIN CTAB
M  V30 COUNTS 29 29 0 0 0
M  V30 BEGIN ATOM
M  V30 1 C 5.06327 -0.298621 0.172336 0
M  V30 2 C 3.71333 -0.712964 -0.341885 0
M  V30 3 C 2.64946 0.162157 0.314311 0
M  V30 4 C 1.2677 -0.243129 -0.195375 0
M  V30 5 N 0.258195 0.584692 0.425064 0
M  V30 6 C -1.10105 0.345538 0.0644168 0
M  V30 7 C -2.06098 1.13365 0.655231 0
M  V30 8 C -3.39977 0.94329 0.339952 0
M  V30 9 N -4.39213 1.75351 0.946734 0
M  V30 10 N -3.69294 -0.0220129 -0.545084 0 CHG=1
M  V30 11 O -5.01351 -0.222935 -0.867719 0 CHG=-1
M  V30 12 C -2.77878 -0.808165 -1.13919 0
M  V30 13 N -3.13598 -1.81805 -2.07065 0
M  V30 14 N -1.46731 -0.59669 -0.808262 0
M  V30 15 H 4.96651 -0.00218849 1.25762 0
M  V30 16 H 5.82252 -1.1078 0.0830906 0
M  V30 17 H 5.44472 0.603613 -0.347592 0
M  V30 18 H 3.53464 -1.79049 -0.0801008 0
M  V30 19 H 3.71304 -0.611149 -1.42527 0
M  V30 20 H 2.68957 0.0337955 1.41437 0
M  V30 21 H 2.84334 1.2031 0.0474774 0
M  V30 22 H 1.29611 -0.128428 -1.29835 0
M  V30 23 H 1.07192 -1.31536 -0.00344044 0
M  V30 24 H 0.541962 1.30993 1.09699 0
M  V30 25 H -1.78393 1.89815 1.3611 0
M  V30 26 H -5.15814 2.16285 0.386728 0
M  V30 27 H -4.3507 1.93847 1.96261 0
M  V30 28 H -3.05568 -1.67071 -3.08946 0
M  V30 29 H -3.48539 -2.72405 -1.71957 0
M  V30 END ATOM
M  V30 BEGIN BOND
M  V30 1 1 1 2
M  V30 2 1 2 3
M  V30 3 1 3 4
M  V30 4 1 4 5
M  V30 5 1 5 6
M  V30 6 2 6 7
M  V30 7 1 7 8
M  V30 8 1 8 9
M  V30 9 2 8 10
M  V30 10 1 10 11
M  V30 11 1 10 12
M  V30 12 1 12 13
M  V30 13 2 12 14
M  V30 14 1 14 6
M  V30 15 1 1 15
M  V30 16 1 1 16
M  V30 17 1 1 17
M  V30 18 1 2 18
M  V30 19 1 2 19
M  V30 20 1 3 20
M  V30 21 1 3 21
M  V30 22 1 4 22
M  V30 23 1 4 23
M  V30 24 1 5 24
M  V30 25 1 7 25
M  V30 26 1 9 26
M  V30 27 1 9 27
M  V30 28 1 13 28
M  V30 29 1 13 29
M  V30 END BOND
M  V30 END CTAB
M  END
