
     RDKit          3D

  0  0  0  0  0  0  0  0  0  0999 V3000
M  V30 BEGIN CTAB
M  V30 COUNTS 26 27 0 0 0
M  V30 BEGIN ATOM
M  V30 1 N -3.92824 -0.705052 0.830124 0
M  V30 2 C -2.5559 -0.250706 0.821404 0
M  V30 3 C -2.33991 0.890304 -0.150779 0
M  V30 4 C -0.868931 0.83364 -0.341953 0
M  V30 5 C -0.474124 -0.472318 -0.155012 0
M  V30 6 C -1.67199 -1.32145 0.169417 0
M  V30 7 C 0.870427 -0.753481 -0.289011 0
M  V30 8 C 1.83181 0.185976 -0.595715 0
M  V30 9 C 1.41662 1.49081 -0.779556 0
M  V30 10 C 0.0740181 1.80361 -0.651708 0
M  V30 11 S 3.52452 -0.231686 -0.752633 0
M  V30 12 O 3.68129 -1.69305 -1.1436 0
M  V30 13 O 4.2177 0.574933 -1.79156 0
M  V30 14 N 4.2617 -0.0616854 0.806799 0
M  V30 15 H -4.00334 -1.489 1.48413 0
M  V30 16 H -4.60658 0.0585613 0.951766 0
M  V30 17 H -2.16171 -0.0117731 1.81456 0
M  V30 18 H -2.67711 1.85819 0.252282 0
M  V30 19 H -2.88608 0.670763 -1.09319 0
M  V30 20 H -2.13309 -1.74295 -0.727145 0
M  V30 21 H -1.4471 -2.0574 0.963876 0
M  V30 22 H 1.18403 -1.79627 -0.13957 0
M  V30 23 H 2.09949 2.29533 -1.02277 0
M  V30 24 H -0.310543 2.81068 -0.784726 0
M  V30 25 H 3.65366 -0.502665 1.50712 0
M  V30 26 H 5.24938 -0.3833 0.817441 0
M  V30 END ATOM
M  V30 BEGIN BOND
M  V30 1 1 1 2
M  V30 2 1 2 3
M  V30 3 1 3 4
M  V30 4 2 4 5
M  V30 5 1 5 6
M  V30 6 1 5 7
M  V30 7 2 7 8
M  V30 8 1 8 9
M  V30 9 2 9 10
M  V30 10 1 8 11
M  V30 11 2 11 12
M  V30 12 2 11 13
M  V30 13 1 11 14
M  V30 14 1 6 2
M  V30 15 1 10 4
M  V30 16 1 1 15
M  V30 17 1 1 16
M  V30 18 1 2 17
M  V30 19 1 3 18
M  V30 20 1 3 19
M  V30 21 1 6 20
M  V30 22 1 6 21
M  V30 23 1 7 22
M  V30 24 1 9 23
M  V30 25 1 10 24
M  V30 26 1 14 25
M  V30 27 1 14 26
M  V30 END BOND
M  V30 END CTAB
M  END
