
     RDKit          3D

  0  0  0  0  0  0  0  0  0  0999 V3000
M  V30 BEGIN CTAB
M  V30 COUNTS 42 44 0 0 0
M  V30 BEGIN ATOM
M  V30 1 N 3.09379 0.831438 -2.59296 0
M  V30 2 C 2.65517 -0.540113 -2.26336 0 CFG=1
M  V30 3 C 3.4847 -0.963086 -1.10603 0
M  V30 4 C 2.8223 -1.86546 -0.116117 0
M  V30 5 C 1.54432 -1.13617 0.322411 0
M  V30 6 N 0.696556 -1.17623 -0.88322 0
M  V30 7 C 1.18139 -0.566896 -2.07918 0
M  V30 8 C -0.552929 -1.82569 -0.758493 0
M  V30 9 C -0.722841 -3.04204 -1.36079 0
M  V30 10 C -1.9025 -3.72112 -1.23434 0
M  V30 11 N -2.87947 -3.17104 -0.51271 0
M  V30 12 C -2.79343 -1.97977 0.11034 0
M  V30 13 C -1.58281 -1.2807 -0.0187624 0
M  V30 14 N -1.37866 -0.00696941 0.547366 0
M  V30 15 C -2.19939 0.736461 1.4026 0
M  V30 16 O -3.29621 0.336136 1.805 0
M  V30 17 C -1.80142 2.08001 1.8928 0
M  V30 18 C -2.58747 2.8227 2.72538 0
M  V30 19 N -3.84085 2.30092 3.14513 0
M  V30 20 N -2.21046 4.02458 3.15248 0
M  V30 21 C -1.04145 4.55943 2.78404 0
M  V30 22 C -0.216574 3.84684 1.94583 0
M  V30 23 N -0.616562 2.61799 1.51704 0
M  V30 24 H 2.98478 1.36066 -1.67801 0
M  V30 25 H 4.13611 0.773927 -2.7451 0
M  V30 26 H 2.97225 -1.13063 -3.17802 0
M  V30 27 H 4.39755 -1.50157 -1.48911 0
M  V30 28 H 3.89393 -0.0968683 -0.525366 0
M  V30 29 H 3.50022 -1.93965 0.767817 0
M  V30 30 H 2.56851 -2.87295 -0.508161 0
M  V30 31 H 1.84539 -0.0862191 0.482207 0
M  V30 32 H 1.07508 -1.63121 1.17313 0
M  V30 33 H 0.796016 0.490098 -2.16972 0
M  V30 34 H 0.721931 -1.07203 -2.98303 0
M  V30 35 H 0.0788645 -3.47059 -1.94065 0
M  V30 36 H -2.03097 -4.66517 -1.7028 0
M  V30 37 H -3.61566 -1.58283 0.677146 0
M  V30 38 H -0.464709 0.493659 0.281994 0
M  V30 39 H -4.01245 1.84592 4.06358 0
M  V30 40 H -4.64101 2.38019 2.48758 0
M  V30 41 H -0.778363 5.53668 3.15586 0
M  V30 42 H 0.717312 4.28737 1.65743 0
M  V30 END ATOM
M  V30 BEGIN BOND
M  V30 1 1 1 2
M  V30 2 1 2 3
M  V30 3 1 3 4
M  V30 4 1 4 5
M  V30 5 1 5 6
M  V30 6 1 6 7
M  V30 7 1 6 8
M  V30 8 2 8 9
M  V30 9 1 9 10
M  V30 10 2 10 11
M  V30 11 1 11 12
M  V30 12 2 12 13
M  V30 13 1 13 14
M  V30 14 1 14 15
M  V30 15 2 15 16
M  V30 16 1 15 17
M  V30 17 2 17 18
M  V30 18 1 18 19
M  V30 19 1 18 20
M  V30 20 2 20 21
M  V30 21 1 21 22
M  V30 22 2 22 23
M  V30 23 1 7 2
M  V30 24 1 13 8
M  V30 25 1 23 17
M  V30 26 1 1 24
M  V30 27 1 1 25
M  V30 28 1 2 26 CFG=3
M  V30 29 1 3 27
M  V30 30 1 3 28
M  V30 31 1 4 29
M  V30 32 1 4 30
M  V30 33 1 5 31
M  V30 34 1 5 32
M  V30 35 1 7 33
M  V30 36 1 7 34
M  V30 37 1 9 35
M  V30 38 1 10 36
M  V30 39 1 12 37
M  V30 40 1 14 38
M  V30 41 1 19 39
M  V30 42 1 19 40
M  V30 43 1 21 41
M  V30 44 1 22 42
M  V30 END BOND
M  V30 END CTAB
M  END
