
     RDKit          3D

  0  0  0  0  0  0  0  0  0  0999 V3000
M  V30 BEGIN CTAB
M  V30 COUNTS 22 21 0 0 0
M  V30 BEGIN ATOM
M  V30 1 N -1.64085 -1.41376 1.14837 0
M  V30 2 C -1.36251 -1.28316 -0.245752 0
M  V30 3 C -0.559177 -0.0637905 -0.606706 0
M  V30 4 N 0.7255 -0.0218178 0.0281501 0
M  V30 5 C 1.93736 -0.08857 -0.713222 0
M  V30 6 O 1.83405 -0.187573 -1.96928 0
M  V30 7 C 3.2678 -0.0446687 -0.0505147 0
M  V30 8 F 3.46106 -1.06608 0.834487 0
M  V30 9 F 4.24132 -0.136498 -1.02413 0
M  V30 10 F 3.36722 1.16516 0.604103 0
M  V30 11 C -1.34182 1.22173 -0.460373 0
M  V30 12 N -1.81873 1.47471 0.84877 0
M  V30 13 H -1.73985 -2.3959 1.4752 0
M  V30 14 H -1.05598 -0.824795 1.7671 0
M  V30 15 H -0.776855 -2.1687 -0.569429 0
M  V30 16 H -2.31905 -1.23337 -0.796342 0
M  V30 17 H -0.388146 -0.153092 -1.72309 0
M  V30 18 H 0.813262 0.059911 1.0654 0
M  V30 19 H -2.17424 1.17449 -1.18829 0
M  V30 20 H -0.665165 2.0409 -0.786052 0
M  V30 21 H -1.1476 1.8609 1.51441 0
M  V30 22 H -2.65761 2.08395 0.84718 0
M  V30 END ATOM
M  V30 BEGIN BOND
M  V30 1 1 1 2
M  V30 2 1 2 3
M  V30 3 1 3 4
M  V30 4 1 4 5
M  V30 5 2 5 6
M  V30 6 1 5 7
M  V30 7 1 7 8
M  V30 8 1 7 9
M  V30 9 1 7 10
M  V30 10 1 3 11
M  V30 11 1 11 12
M  V30 12 1 1 13
M  V30 13 1 1 14
M  V30 14 1 2 15
M  V30 15 1 2 16
M  V30 16 1 3 17
M  V30 17 1 4 18
M  V30 18 1 11 19
M  V30 19 1 11 20
M  V30 20 1 12 21
M  V30 21 1 12 22
M  V30 END BOND
M  V30 END CTAB
M  END
