
     RDKit          3D

  0  0  0  0  0  0  0  0  0  0999 V3000
M  V30 BEGIN CTAB
M  V30 COUNTS 35 35 0 0 0
M  V30 BEGIN ATOM
M  V30 1 C -1.37229 2.91506 -1.31814 0
M  V30 2 C -0.495685 2.51504 -0.178797 0
M  V30 3 N -0.579981 1.05995 0.0552786 0
M  V30 4 C 0.603486 0.350136 -0.253061 0
M  V30 5 N 0.875664 -0.150833 -1.45911 0
M  V30 6 C 2.02496 -0.79885 -1.68351 0
M  V30 7 C 2.96969 -0.977956 -0.692417 0
M  V30 8 C 2.72379 -0.477113 0.55874 0
M  V30 9 C 1.53247 0.18288 0.751248 0
M  V30 10 N 3.67035 -0.640752 1.59724 0
M  V30 11 N 4.19933 -1.67226 -0.944276 0
M  V30 12 C -1.80846 0.583598 0.554332 0
M  V30 13 C -1.9572 -0.879256 0.780348 0
M  V30 14 C -3.38707 -1.06893 1.33113 0
M  V30 15 C -1.91036 -1.6817 -0.503469 0
M  V30 16 H -0.988075 2.43531 -2.25447 0
M  V30 17 H -2.41339 2.65809 -1.10636 0
M  V30 18 H -1.29039 3.99906 -1.45391 0
M  V30 19 H 0.520404 2.86391 -0.345229 0
M  V30 20 H -0.875443 2.96642 0.770229 0
M  V30 21 H 2.25696 -1.21572 -2.68388 0
M  V30 22 H 1.36446 0.571162 1.76156 0
M  V30 23 H 4.65022 -0.949735 1.4342 0
M  V30 24 H 3.40419 -0.449118 2.59861 0
M  V30 25 H 4.66609 -2.25853 -0.217699 0
M  V30 26 H 4.68405 -1.61068 -1.88827 0
M  V30 27 H -2.69936 0.893515 -0.0732397 0
M  V30 28 H -2.02596 1.07907 1.54829 0
M  V30 29 H -1.25524 -1.30351 1.52066 0
M  V30 30 H -4.05199 -0.355592 0.766984 0
M  V30 31 H -3.75766 -2.07529 1.08829 0
M  V30 32 H -3.44632 -0.804729 2.39073 0
M  V30 33 H -1.02206 -2.34036 -0.572516 0
M  V30 34 H -2.78055 -2.36447 -0.513498 0
M  V30 35 H -2.02864 -0.997844 -1.36601 0
M  V30 END ATOM
M  V30 BEGIN BOND
M  V30 1 1 1 2
M  V30 2 1 2 3
M  V30 3 1 3 4
M  V30 4 2 4 5
M  V30 5 1 5 6
M  V30 6 2 6 7
M  V30 7 1 7 8
M  V30 8 2 8 9
M  V30 9 1 8 10
M  V30 10 1 7 11
M  V30 11 1 3 12
M  V30 12 1 12 13
M  V30 13 1 13 14
M  V30 14 1 13 15
M  V30 15 1 9 4
M  V30 16 1 1 16
M  V30 17 1 1 17
M  V30 18 1 1 18
M  V30 19 1 2 19
M  V30 20 1 2 20
M  V30 21 1 6 21
M  V30 22 1 9 22
M  V30 23 1 10 23
M  V30 24 1 10 24
M  V30 25 1 11 25
M  V30 26 1 11 26
M  V30 27 1 12 27
M  V30 28 1 12 28
M  V30 29 1 13 29
M  V30 30 1 14 30
M  V30 31 1 14 31
M  V30 32 1 14 32
M  V30 33 1 15 33
M  V30 34 1 15 34
M  V30 35 1 15 35
M  V30 END BOND
M  V30 END CTAB
M  END
