
     RDKit          3D

  0  0  0  0  0  0  0  0  0  0999 V3000
M  V30 BEGIN CTAB
M  V30 COUNTS 25 26 0 0 0
M  V30 BEGIN ATOM
M  V30 1 N 0.75391 0.911551 2.13599 0
M  V30 2 C 1.51498 0.266426 1.11301 0
M  V30 3 N 2.66511 -0.341632 1.47079 0
M  V30 4 C 3.42407 -0.960281 0.561294 0
M  V30 5 C 2.99842 -0.963049 -0.771272 0
M  V30 6 C 1.82504 -0.345519 -1.15044 0
M  V30 7 C 1.05109 0.294106 -0.176254 0
M  V30 8 C -0.201307 0.955437 -0.550362 0
M  V30 9 C -1.39691 0.171453 -0.0681354 0
M  V30 10 C -2.70862 0.385767 -0.394978 0
M  V30 11 C -3.61521 -0.4442 0.1552 0
M  V30 12 C -3.15324 -1.42151 0.985713 0
M  V30 13 S -1.47058 -1.16812 0.985631 0
M  V30 14 N -0.302188 1.18442 -1.98612 0
M  V30 15 H 0.744625 0.466682 3.07771 0
M  V30 16 H 0.222972 1.77736 1.99619 0
M  V30 17 H 4.34312 -1.4444 0.857971 0
M  V30 18 H 3.64376 -1.47696 -1.47615 0
M  V30 19 H 1.52215 -0.363068 -2.17553 0
M  V30 20 H -0.283718 1.95337 -0.0720593 0
M  V30 21 H -2.9499 1.2249 -1.09067 0
M  V30 22 H -4.70076 -0.331242 -0.0633173 0
M  V30 23 H -3.78162 -2.16814 1.50288 0
M  V30 24 H -0.752673 0.388883 -2.47819 0
M  V30 25 H 0.607476 1.44777 -2.3889 0
M  V30 END ATOM
M  V30 BEGIN BOND
M  V30 1 1 1 2
M  V30 2 2 2 3
M  V30 3 1 3 4
M  V30 4 2 4 5
M  V30 5 1 5 6
M  V30 6 2 6 7
M  V30 7 1 7 8
M  V30 8 1 8 9
M  V30 9 2 9 10
M  V30 10 1 10 11
M  V30 11 2 11 12
M  V30 12 1 12 13
M  V30 13 1 8 14
M  V30 14 1 7 2
M  V30 15 1 13 9
M  V30 16 1 1 15
M  V30 17 1 1 16
M  V30 18 1 4 17
M  V30 19 1 5 18
M  V30 20 1 6 19
M  V30 21 1 8 20
M  V30 22 1 10 21
M  V30 23 1 11 22
M  V30 24 1 12 23
M  V30 25 1 14 24
M  V30 26 1 14 25
M  V30 END BOND
M  V30 END CTAB
M  END
