
     RDKit          3D

  0  0  0  0  0  0  0  0  0  0999 V3000
M  V30 BEGIN CTAB
M  V30 COUNTS 31 32 0 0 0
M  V30 BEGIN ATOM
M  V30 1 N 5.88575 0.0392244 0.154338 0
M  V30 2 C 4.46484 -0.0136838 0.0391348 0
M  V30 3 C 3.65539 0.629562 0.946219 0
M  V30 4 C 2.28382 0.609825 0.880277 0
M  V30 5 C 1.66183 -0.0734591 -0.12401 0
M  V30 6 C 2.43895 -0.729752 -1.05067 0
M  V30 7 C 3.83231 -0.707074 -0.97973 0
M  V30 8 C 0.201064 -0.130011 -0.254721 0
M  V30 9 N -0.530169 0.920712 0.386943 0
M  V30 10 C -1.95991 0.909243 0.316854 0
M  V30 11 C -2.63184 -0.10768 -0.364777 0
M  V30 12 C -4.00873 -0.120541 -0.433469 0
M  V30 13 N -4.69977 -1.15305 -1.12593 0
M  V30 14 C -4.68619 0.909085 0.197069 0
M  V30 15 C -4.03441 1.91824 0.872838 0
M  V30 16 C -2.67125 1.92451 0.936698 0
M  V30 17 Cl -1.7573 3.17317 1.77756 0
M  V30 18 H 6.38731 -0.800304 0.525076 0
M  V30 19 H 6.43881 0.859972 -0.108565 0
M  V30 20 H 4.14018 1.18291 1.75876 0
M  V30 21 H 1.72151 1.15582 1.66054 0
M  V30 22 H 2.02075 -1.2919 -1.8741 0
M  V30 23 H 4.43675 -1.22594 -1.71262 0
M  V30 24 H -0.0867596 -0.139872 -1.34958 0
M  V30 25 H -0.106652 -1.12727 0.163269 0
M  V30 26 H -0.0434161 1.66569 0.882074 0
M  V30 27 H -2.04039 -0.894389 -0.843323 0
M  V30 28 H -5.01528 -2.00051 -0.607885 0
M  V30 29 H -4.91818 -1.11854 -2.14523 0
M  V30 30 H -5.78329 0.865224 0.120775 0
M  V30 31 H -4.59574 2.71039 1.35617 0
M  V30 END ATOM
M  V30 BEGIN BOND
M  V30 1 1 1 2
M  V30 2 2 2 3
M  V30 3 1 3 4
M  V30 4 2 4 5
M  V30 5 1 5 6
M  V30 6 2 6 7
M  V30 7 1 5 8
M  V30 8 1 8 9
M  V30 9 1 9 10
M  V30 10 2 10 11
M  V30 11 1 11 12
M  V30 12 1 12 13
M  V30 13 2 12 14
M  V30 14 1 14 15
M  V30 15 2 15 16
M  V30 16 1 16 17
M  V30 17 1 7 2
M  V30 18 1 16 10
M  V30 19 1 1 18
M  V30 20 1 1 19
M  V30 21 1 3 20
M  V30 22 1 4 21
M  V30 23 1 6 22
M  V30 24 1 7 23
M  V30 25 1 8 24
M  V30 26 1 8 25
M  V30 27 1 9 26
M  V30 28 1 11 27
M  V30 29 1 13 28
M  V30 30 1 13 29
M  V30 31 1 14 30
M  V30 32 1 15 31
M  V30 END BOND
M  V30 END CTAB
M  END
