
     RDKit          3D

  0  0  0  0  0  0  0  0  0  0999 V3000
M  V30 BEGIN CTAB
M  V30 COUNTS 41 41 0 0 0
M  V30 BEGIN ATOM
M  V30 1 N 3.05636 -2.8913 0.915093 0
M  V30 2 C 3.29562 -1.52756 0.441565 0
M  V30 3 C 2.12274 -0.624031 0.834491 0
M  V30 4 C 0.910344 -1.24071 0.161447 0
M  V30 5 N -0.0635341 -0.268271 -0.242382 0
M  V30 6 C 0.433059 0.986492 -0.777032 0
M  V30 7 C 1.26569 1.58211 0.339488 0
M  V30 8 N 2.32958 0.718786 0.626108 0
M  V30 9 S 3.81741 1.40957 0.459115 0
M  V30 10 O 4.62639 1.19754 1.73542 0
M  V30 11 O 3.65538 2.91775 0.352653 0
M  V30 12 N 4.78859 0.915388 -0.836719 0
M  V30 13 C -1.4684 -0.487529 -0.138735 0
M  V30 14 O -1.93688 -1.55007 0.314452 0
M  V30 15 O -2.35274 0.488054 -0.544611 0
M  V30 16 C -3.77447 0.310599 -0.458483 0
M  V30 17 C -4.24092 -0.857962 -1.26319 0
M  V30 18 C -4.39029 1.57022 -1.03206 0
M  V30 19 C -4.12026 0.190236 1.0137 0
M  V30 20 H 3.92731 -3.41951 1.05741 0
M  V30 21 H 2.47604 -3.42557 0.219704 0
M  V30 22 H 3.34611 -1.55194 -0.644822 0
M  V30 23 H 4.21637 -1.19041 0.949516 0
M  V30 24 H 1.97965 -0.827331 1.93849 0
M  V30 25 H 0.397968 -1.9817 0.809683 0
M  V30 26 H 1.20146 -1.80083 -0.762971 0
M  V30 27 H -0.376923 1.65585 -1.1103 0
M  V30 28 H 1.12166 0.716584 -1.62009 0
M  V30 29 H 1.66509 2.55329 -0.0401897 0
M  V30 30 H 0.567705 1.75811 1.20064 0
M  V30 31 H 5.35911 1.69917 -1.20888 0
M  V30 32 H 5.4937 0.172068 -0.557516 0
M  V30 33 H -3.55455 -1.01132 -2.13018 0
M  V30 34 H -5.23435 -0.618147 -1.70044 0
M  V30 35 H -4.34488 -1.78367 -0.655098 0
M  V30 36 H -5.48671 1.43128 -1.16145 0
M  V30 37 H -4.22672 2.44492 -0.336829 0
M  V30 38 H -3.90149 1.84687 -1.98528 0
M  V30 39 H -4.52935 -0.818275 1.1675 0
M  V30 40 H -4.83164 0.983848 1.32398 0
M  V30 41 H -3.21925 0.327391 1.66021 0
M  V30 END ATOM
M  V30 BEGIN BOND
M  V30 1 1 1 2
M  V30 2 1 2 3
M  V30 3 1 3 4
M  V30 4 1 4 5
M  V30 5 1 5 6
M  V30 6 1 6 7
M  V30 7 1 7 8
M  V30 8 1 8 9
M  V30 9 2 9 10
M  V30 10 2 9 11
M  V30 11 1 9 12
M  V30 12 1 5 13
M  V30 13 2 13 14
M  V30 14 1 13 15
M  V30 15 1 15 16
M  V30 16 1 16 17
M  V30 17 1 16 18
M  V30 18 1 16 19
M  V30 19 1 8 3
M  V30 20 1 1 20
M  V30 21 1 1 21
M  V30 22 1 2 22
M  V30 23 1 2 23
M  V30 24 1 3 24
M  V30 25 1 4 25
M  V30 26 1 4 26
M  V30 27 1 6 27
M  V30 28 1 6 28
M  V30 29 1 7 29
M  V30 30 1 7 30
M  V30 31 1 12 31
M  V30 32 1 12 32
M  V30 33 1 17 33
M  V30 34 1 17 34
M  V30 35 1 17 35
M  V30 36 1 18 36
M  V30 37 1 18 37
M  V30 38 1 18 38
M  V30 39 1 19 39
M  V30 40 1 19 40
M  V30 41 1 19 41
M  V30 END BOND
M  V30 END CTAB
M  END
