
     RDKit          3D

  0  0  0  0  0  0  0  0  0  0999 V3000
M  V30 BEGIN CTAB
M  V30 COUNTS 40 42 0 0 0
M  V30 BEGIN ATOM
M  V30 1 N 7.40985 1.94212 1.31876 0
M  V30 2 C 7.0186 0.829159 0.517398 0
M  V30 3 N 7.94855 0.122789 0.00744278 0
M  V30 4 C 5.60626 0.553088 0.320111 0
M  V30 5 C 4.64115 1.3788 0.916133 0
M  V30 6 C 3.29661 1.13678 0.743286 0
M  V30 7 C 2.83878 0.0880017 -0.0118413 0
M  V30 8 C 1.42097 -0.187596 -0.208795 0
M  V30 9 C 0.43758 0.518906 0.301378 0
M  V30 10 C -0.969698 0.145539 0.0339637 0
M  V30 11 C -1.41231 -0.911328 -0.72701 0
M  V30 12 C -2.80368 -0.93 -0.73891 0
M  V30 13 C -3.19274 0.142653 0.0343675 0
M  V30 14 N -2.0716 0.764903 0.481446 0
M  V30 15 C -4.54304 0.361917 0.193844 0
M  V30 16 C -5.52539 -0.439055 -0.382166 0
M  V30 17 C -5.08961 -1.50706 -1.15214 0
M  V30 18 C -3.73151 -1.75788 -1.33437 0
M  V30 19 C -6.93948 -0.162305 -0.181214 0
M  V30 20 N -7.29454 0.95179 0.621865 0
M  V30 21 N -7.83361 -0.879947 -0.697285 0
M  V30 22 C 3.7777 -0.716402 -0.592485 0
M  V30 23 C 5.14907 -0.49059 -0.431345 0
M  V30 24 H 8.032 2.71352 0.949826 0
M  V30 25 H 7.0592 1.97565 2.29745 0
M  V30 26 H 7.73134 -0.690781 -0.578425 0
M  V30 27 H 5.02426 2.19721 1.50537 0
M  V30 28 H 2.61584 1.81512 1.23281 0
M  V30 29 H 1.11574 -1.04146 -0.823673 0
M  V30 30 H 0.673524 1.37406 0.917266 0
M  V30 31 H -0.785497 -1.63499 -1.24911 0
M  V30 32 H -2.08312 1.60613 1.08756 0
M  V30 33 H -4.85525 1.19748 0.796215 0
M  V30 34 H -5.83732 -2.13332 -1.60253 0
M  V30 35 H -3.39999 -2.58836 -1.93309 0
M  V30 36 H -8.03359 1.59046 0.253728 0
M  V30 37 H -6.87909 1.17283 1.53295 0
M  V30 38 H -7.78512 -1.70447 -1.2914 0
M  V30 39 H 3.43934 -1.55375 -1.19542 0
M  V30 40 H 5.82983 -1.18432 -0.931958 0
M  V30 END ATOM
M  V30 BEGIN BOND
M  V30 1 1 1 2
M  V30 2 2 2 3 CFG=2
M  V30 3 1 2 4
M  V30 4 2 4 5
M  V30 5 1 5 6
M  V30 6 2 6 7
M  V30 7 1 7 8
M  V30 8 2 8 9
M  V30 9 1 9 10
M  V30 10 2 10 11
M  V30 11 1 11 12
M  V30 12 2 12 13
M  V30 13 1 13 14
M  V30 14 1 13 15
M  V30 15 2 15 16
M  V30 16 1 16 17
M  V30 17 2 17 18
M  V30 18 1 16 19
M  V30 19 1 19 20
M  V30 20 2 19 21 CFG=2
M  V30 21 1 7 22
M  V30 22 2 22 23
M  V30 23 1 23 4
M  V30 24 1 14 10
M  V30 25 1 18 12
M  V30 26 1 1 24
M  V30 27 1 1 25
M  V30 28 1 3 26
M  V30 29 1 5 27
M  V30 30 1 6 28
M  V30 31 1 8 29
M  V30 32 1 9 30
M  V30 33 1 11 31
M  V30 34 1 14 32
M  V30 35 1 15 33
M  V30 36 1 17 34
M  V30 37 1 18 35
M  V30 38 1 20 36
M  V30 39 1 20 37
M  V30 40 1 21 38
M  V30 41 1 22 39
M  V30 42 1 23 40
M  V30 END BOND
M  V30 END CTAB
M  END
