
     RDKit          3D

  0  0  0  0  0  0  0  0  0  0999 V3000
M  V30 BEGIN CTAB
M  V30 COUNTS 67 72 0 0 0
M  V30 BEGIN ATOM
M  V30 1 N 2.81517 -0.0798525 -4.20403 0
M  V30 2 C 1.43858 0.136676 -3.97173 0
M  V30 3 C 0.868494 -0.108494 -2.73146 0
M  V30 4 C -0.500516 0.155237 -2.57128 0
M  V30 5 N -1.21939 0.627938 -3.59852 0
M  V30 6 C -0.651174 0.858923 -4.79461 0
M  V30 7 N 0.657904 0.611575 -4.95986 0
M  V30 8 N -0.776384 -0.16341 -1.28905 0
M  V30 9 C -2.12053 -0.0139713 -0.70136 0
M  V30 10 C -2.20271 1.30045 -0.0633557 0 CFG=1
M  V30 11 C -1.98011 2.50709 -0.908541 0
M  V30 12 C -2.14691 3.55971 0.21667 0
M  V30 13 C -3.32278 2.98181 1.02485 0
M  V30 14 N -3.41046 1.62078 0.63304 0
M  V30 15 C -4.52412 0.753867 0.862827 0
M  V30 16 O -4.49149 -0.419316 0.316406 0
M  V30 17 C -5.69677 1.00213 1.63076 0
M  V30 18 C -6.72984 0.199621 1.80929 0
M  V30 19 C -6.83602 -1.14685 1.21131 0
M  V30 20 N -7.24538 -1.22418 -0.184795 0
M  V30 21 C -6.21062 -2.26833 1.91017 0
M  V30 22 C -7.67759 -2.13656 2.05524 0
M  V30 23 C -5.82955 2.25608 2.38287 0
M  V30 24 N -5.96701 3.24684 3.01522 0
M  V30 25 N 0.305038 -0.591308 -0.68155 0
M  V30 26 C 1.35974 -0.576228 -1.54184 0
M  V30 27 C 2.72753 -0.953044 -1.24216 0
M  V30 28 C 3.46641 -0.265289 -0.274007 0
M  V30 29 F 2.84312 0.784954 0.318584 0
M  V30 30 C 4.74789 -0.626425 0.0618972 0
M  V30 31 C 5.37819 -1.69154 -0.540027 0
M  V30 32 O 6.67206 -2.07862 -0.220414 0
M  V30 33 C 7.43348 -1.41887 0.733412 0
M  V30 34 C 7.36808 -1.83187 2.03708 0
M  V30 35 C 8.10559 -1.20918 3.0256 0
M  V30 36 C 8.93161 -0.14676 2.71345 0
M  V30 37 C 8.99734 0.271039 1.39278 0
M  V30 38 C 8.25561 -0.360521 0.419241 0
M  V30 39 C 4.67704 -2.3884 -1.49658 0
M  V30 40 C 3.38533 -2.02178 -1.83255 0
M  V30 41 H 3.14117 -0.867455 -4.78911 0
M  V30 42 H 3.50974 0.560083 -3.78184 0
M  V30 43 H -1.24404 1.23965 -5.61269 0
M  V30 44 H -2.82573 -0.272196 -1.47633 0
M  V30 45 H -2.12346 -0.79274 0.116465 0
M  V30 46 H -1.39138 1.32404 0.734969 0
M  V30 47 H -2.82566 2.66351 -1.58496 0
M  V30 48 H -0.976735 2.60368 -1.35464 0
M  V30 49 H -2.3856 4.54582 -0.175308 0
M  V30 50 H -1.23059 3.55246 0.829065 0
M  V30 51 H -4.23987 3.57266 0.735962 0
M  V30 52 H -3.09677 3.04883 2.10402 0
M  V30 53 H -7.57954 0.524384 2.43272 0
M  V30 54 H -7.85473 -2.01257 -0.409365 0
M  V30 55 H -7.50157 -0.314579 -0.577011 0
M  V30 56 H -5.60412 -2.06371 2.81411 0
M  V30 57 H -5.79345 -3.13496 1.33444 0
M  V30 58 H -8.1372 -1.7292 2.97123 0
M  V30 59 H -8.26643 -2.90569 1.53615 0
M  V30 60 H 5.30217 -0.0747357 0.818858 0
M  V30 61 H 6.72551 -2.65957 2.2854 0
M  V30 62 H 8.05015 -1.53967 4.05501 0
M  V30 63 H 9.53203 0.381022 3.43776 0
M  V30 64 H 9.62537 1.09635 1.08745 0
M  V30 65 H 8.29118 -0.0511928 -0.619533 0
M  V30 66 H 5.15929 -3.24259 -1.99105 0
M  V30 67 H 2.84542 -2.60556 -2.59445 0
M  V30 END ATOM
M  V30 BEGIN BOND
M  V30 1 1 1 2
M  V30 2 2 2 3
M  V30 3 1 3 4
M  V30 4 2 4 5
M  V30 5 1 5 6
M  V30 6 2 6 7
M  V30 7 1 4 8
M  V30 8 1 8 9
M  V30 9 1 9 10
M  V30 10 1 10 11
M  V30 11 1 11 12
M  V30 12 1 12 13
M  V30 13 1 13 14
M  V30 14 1 14 15
M  V30 15 2 15 16
M  V30 16 1 15 17
M  V30 17 2 17 18 CFG=2
M  V30 18 1 18 19
M  V30 19 1 19 20
M  V30 20 1 19 21
M  V30 21 1 21 22
M  V30 22 1 17 23
M  V30 23 3 23 24
M  V30 24 1 8 25
M  V30 25 2 25 26
M  V30 26 1 26 27
M  V30 27 2 27 28
M  V30 28 1 28 29
M  V30 29 1 28 30
M  V30 30 2 30 31
M  V30 31 1 31 32
M  V30 32 1 32 33
M  V30 33 2 33 34
M  V30 34 1 34 35
M  V30 35 2 35 36
M  V30 36 1 36 37
M  V30 37 2 37 38
M  V30 38 1 31 39
M  V30 39 2 39 40
M  V30 40 1 7 2
M  V30 41 1 14 10
M  V30 42 1 22 19
M  V30 43 1 40 27
M  V30 44 1 26 3
M  V30 45 1 38 33
M  V30 46 1 1 41
M  V30 47 1 1 42
M  V30 48 1 6 43
M  V30 49 1 9 44
M  V30 50 1 9 45
M  V30 51 1 10 46 CFG=1
M  V30 52 1 11 47
M  V30 53 1 11 48
M  V30 54 1 12 49
M  V30 55 1 12 50
M  V30 56 1 13 51
M  V30 57 1 13 52
M  V30 58 1 18 53
M  V30 59 1 20 54
M  V30 60 1 20 55
M  V30 61 1 21 56
M  V30 62 1 21 57
M  V30 63 1 22 58
M  V30 64 1 22 59
M  V30 65 1 30 60
M  V30 66 1 34 61
M  V30 67 1 35 62
M  V30 68 1 36 63
M  V30 69 1 37 64
M  V30 70 1 38 65
M  V30 71 1 39 66
M  V30 72 1 40 67
M  V30 END BOND
M  V30 END CTAB
M  END
