
     RDKit          3D

  0  0  0  0  0  0  0  0  0  0999 V3000
M  V30 BEGIN CTAB
M  V30 COUNTS 24 25 0 0 0
M  V30 BEGIN ATOM
M  V30 1 N -3.33109 -1.87444 0.119931 0
M  V30 2 C -1.92009 -1.5988 0.141185 0
M  V30 3 C -1.66983 -0.139022 0.0608961 0
M  V30 4 C -2.60942 0.867735 -0.0241438 0
M  V30 5 N -1.89068 2.00387 -0.0726388 0
M  V30 6 N -0.606789 1.74481 -0.0229475 0
M  V30 7 C -0.403346 0.404169 0.0623296 0
M  V30 8 C 0.883843 -0.265482 0.136463 0
M  V30 9 O 1.07167 -1.5544 0.218406 0
M  V30 10 N 2.35762 -1.81393 0.268001 0
M  V30 11 C 3.05354 -0.660211 0.217566 0
M  V30 12 N 2.09304 0.306116 0.134395 0
M  V30 13 N 4.45228 -0.49664 0.244882 0
M  V30 14 C 0.434436 2.74053 -0.0544316 0
M  V30 15 H -3.5746 -2.81192 0.491743 0
M  V30 16 H -3.78702 -1.65044 -0.7838 0
M  V30 17 H -1.33575 -2.18022 -0.588763 0
M  V30 18 H -1.55829 -1.91259 1.16255 0
M  V30 19 H -3.70401 0.750135 -0.0463533 0
M  V30 20 H 5.05088 -1.33287 0.0874202 0
M  V30 21 H 4.86477 0.445963 0.419897 0
M  V30 22 H 1.15725 2.63264 0.788261 0
M  V30 23 H 0.00750203 3.75832 -0.0129048 0
M  V30 24 H 0.964097 2.63669 -1.04165 0
M  V30 END ATOM
M  V30 BEGIN BOND
M  V30 1 1 1 2
M  V30 2 1 2 3
M  V30 3 1 3 4
M  V30 4 2 4 5
M  V30 5 1 5 6
M  V30 6 1 6 7
M  V30 7 1 7 8
M  V30 8 1 8 9
M  V30 9 1 9 10
M  V30 10 2 10 11
M  V30 11 1 11 12
M  V30 12 1 11 13
M  V30 13 1 6 14
M  V30 14 2 7 3
M  V30 15 2 12 8
M  V30 16 1 1 15
M  V30 17 1 1 16
M  V30 18 1 2 17
M  V30 19 1 2 18
M  V30 20 1 4 19
M  V30 21 1 13 20
M  V30 22 1 13 21
M  V30 23 1 14 22
M  V30 24 1 14 23
M  V30 25 1 14 24
M  V30 END BOND
M  V30 END CTAB
M  END
