
     RDKit          3D

  0  0  0  0  0  0  0  0  0  0999 V3000
M  V30 BEGIN CTAB
M  V30 COUNTS 31 31 0 0 0
M  V30 BEGIN ATOM
M  V30 1 N -2.3925 2.18587 0.821637 0
M  V30 2 C -2.95361 0.837586 0.819671 0
M  V30 3 C -2.21347 0.00153388 -0.202153 0
M  V30 4 N -0.821032 -0.0239452 0.183998 0
M  V30 5 C 0.210513 0.430496 -0.679726 0
M  V30 6 O -0.0392735 0.882157 -1.83466 0
M  V30 7 N 1.55777 0.390342 -0.26877 0
M  V30 8 C 2.70502 0.817136 -1.03508 0
M  V30 9 C 3.92662 0.399992 -0.237032 0
M  V30 10 C 3.35797 -0.729878 0.594974 0
M  V30 11 C 2.02411 -0.092697 1.00888 0
M  V30 12 C -2.71695 -1.42911 -0.126621 0
M  V30 13 N -2.05807 -2.28525 -1.07091 0
M  V30 14 H -2.11658 2.38784 -0.169291 0
M  V30 15 H -3.17905 2.83228 1.05817 0
M  V30 16 H -4.04674 0.853956 0.627441 0
M  V30 17 H -2.77288 0.3622 1.80877 0
M  V30 18 H -2.36084 0.405209 -1.21675 0
M  V30 19 H -0.581556 -0.388707 1.12664 0
M  V30 20 H 2.68608 1.92691 -1.13964 0
M  V30 21 H 2.77797 0.349549 -2.02559 0
M  V30 22 H 4.21273 1.23565 0.422149 0
M  V30 23 H 4.7476 0.0646517 -0.896936 0
M  V30 24 H 3.97385 -0.940565 1.49149 0
M  V30 25 H 3.12555 -1.60835 -0.0117944 0
M  V30 26 H 2.29518 0.795714 1.61176 0
M  V30 27 H 1.37195 -0.796106 1.51023 0
M  V30 28 H -2.56355 -1.84353 0.877025 0
M  V30 29 H -3.80439 -1.46507 -0.348142 0
M  V30 30 H -1.82986 -3.23414 -0.699901 0
M  V30 31 H -2.52256 -2.32171 -1.99986 0
M  V30 END ATOM
M  V30 BEGIN BOND
M  V30 1 1 1 2
M  V30 2 1 2 3
M  V30 3 1 3 4
M  V30 4 1 4 5
M  V30 5 2 5 6
M  V30 6 1 5 7
M  V30 7 1 7 8
M  V30 8 1 8 9
M  V30 9 1 9 10
M  V30 10 1 10 11
M  V30 11 1 3 12
M  V30 12 1 12 13
M  V30 13 1 11 7
M  V30 14 1 1 14
M  V30 15 1 1 15
M  V30 16 1 2 16
M  V30 17 1 2 17
M  V30 18 1 3 18
M  V30 19 1 4 19
M  V30 20 1 8 20
M  V30 21 1 8 21
M  V30 22 1 9 22
M  V30 23 1 9 23
M  V30 24 1 10 24
M  V30 25 1 10 25
M  V30 26 1 11 26
M  V30 27 1 11 27
M  V30 28 1 12 28
M  V30 29 1 12 29
M  V30 30 1 13 30
M  V30 31 1 13 31
M  V30 END BOND
M  V30 END CTAB
M  END
