
     RDKit          3D

  0  0  0  0  0  0  0  0  0  0999 V3000
M  V30 BEGIN CTAB
M  V30 COUNTS 53 57 0 0 0
M  V30 BEGIN ATOM
M  V30 1 O 4.32547 -0.469457 -0.780897 0
M  V30 2 C 3.83231 -1.12154 0.110666 0
M  V30 3 N 2.48354 -1.15585 0.431019 0
M  V30 4 C 1.35589 -0.539193 -0.080826 0
M  V30 5 C 1.34725 0.565954 -0.895335 0
M  V30 6 C 0.155102 1.13423 -1.3686 0
M  V30 7 C -1.03144 0.571245 -1.00474 0
M  V30 8 C -1.10606 -0.532197 -0.192433 0
M  V30 9 C 0.126789 -1.04676 0.242121 0
M  V30 10 Cl 0.105168 -2.4717 1.29744 0
M  V30 11 N -2.28122 -1.1838 0.156732 0
M  V30 12 C -3.64158 -1.01477 -0.17824 0
M  V30 13 O -4.07449 -0.136001 -0.901238 0
M  V30 14 C -4.51669 -2.06222 0.435213 0
M  V30 15 S -6.09995 -2.37782 -0.161739 0
M  V30 16 C -7.4513 -1.36471 0.308603 0
M  V30 17 N -8.21661 -1.59714 1.46063 0
M  V30 18 N -9.18654 -0.716893 1.52798 0
M  V30 19 C -9.09552 0.08816 0.45993 0
M  V30 20 N -8.04549 -0.315337 -0.261176 0
M  V30 21 N -7.99722 0.509367 -1.3244 0
M  V30 22 C -8.99073 1.39421 -1.26915 0
M  V30 23 N -9.71146 1.15039 -0.147587 0
M  V30 24 N -10.8432 1.77216 0.343629 0
M  V30 25 C 0.292529 2.33133 -2.24632 0
M  V30 26 F 1.62007 2.78022 -2.29691 0
M  V30 27 F -0.148082 2.10991 -3.52036 0
M  V30 28 F -0.44349 3.32295 -1.65564 0
M  V30 29 C 4.71927 -1.99041 0.967236 0
M  V30 30 S 6.1903 -2.52172 0.249106 0
M  V30 31 C 7.54999 -1.50519 -0.0143072 0
M  V30 32 N 8.72207 -1.93922 -0.580521 0
M  V30 33 N 9.58881 -0.957441 -0.632623 0
M  V30 34 C 9.00604 0.147892 -0.10466 0
M  V30 35 N 7.7723 -0.209944 0.261812 0
M  V30 36 N 7.19748 0.862411 0.777599 0
M  V30 37 C 8.11243 1.87849 0.715914 0
M  V30 38 N 9.25212 1.44434 0.167806 0
M  V30 39 N 10.413 2.16352 -0.0680244 0
M  V30 40 H 2.28626 -1.82405 1.29454 0
M  V30 41 H 2.31329 0.988443 -1.19216 0
M  V30 42 H -1.94344 1.03247 -1.39817 0
M  V30 43 H -2.10606 -2.02695 0.853169 0
M  V30 44 H -4.61365 -1.76217 1.55543 0
M  V30 45 H -3.93885 -3.03496 0.561554 0
M  V30 46 H -9.20887 2.17137 -1.9593 0
M  V30 47 H -11.01 2.07701 1.30755 0
M  V30 48 H -11.6525 1.96862 -0.337388 0
M  V30 49 H 4.0736 -2.88411 1.25142 0
M  V30 50 H 4.829 -1.45379 1.97689 0
M  V30 51 H 7.90547 2.87764 1.05592 0
M  V30 52 H 11.1763 2.16998 0.659394 0
M  V30 53 H 10.6026 2.70305 -0.936126 0
M  V30 END ATOM
M  V30 BEGIN BOND
M  V30 1 2 1 2
M  V30 2 1 2 3
M  V30 3 1 3 4
M  V30 4 2 4 5
M  V30 5 1 5 6
M  V30 6 2 6 7
M  V30 7 1 7 8
M  V30 8 2 8 9
M  V30 9 1 9 10
M  V30 10 1 8 11
M  V30 11 1 11 12
M  V30 12 2 12 13
M  V30 13 1 12 14
M  V30 14 1 14 15
M  V30 15 1 15 16
M  V30 16 2 16 17
M  V30 17 1 17 18
M  V30 18 2 18 19
M  V30 19 1 19 20
M  V30 20 1 20 21
M  V30 21 2 21 22
M  V30 22 1 22 23
M  V30 23 1 23 24
M  V30 24 1 6 25
M  V30 25 1 25 26
M  V30 26 1 25 27
M  V30 27 1 25 28
M  V30 28 1 2 29
M  V30 29 1 29 30
M  V30 30 1 30 31
M  V30 31 2 31 32
M  V30 32 1 32 33
M  V30 33 2 33 34
M  V30 34 1 34 35
M  V30 35 1 35 36
M  V30 36 2 36 37
M  V30 37 1 37 38
M  V30 38 1 38 39
M  V30 39 1 9 4
M  V30 40 1 20 16
M  V30 41 1 35 31
M  V30 42 1 23 19
M  V30 43 1 38 34
M  V30 44 1 3 40
M  V30 45 1 5 41
M  V30 46 1 7 42
M  V30 47 1 11 43
M  V30 48 1 14 44
M  V30 49 1 14 45
M  V30 50 1 22 46
M  V30 51 1 24 47
M  V30 52 1 24 48
M  V30 53 1 29 49
M  V30 54 1 29 50
M  V30 55 1 37 51
M  V30 56 1 39 52
M  V30 57 1 39 53
M  V30 END BOND
M  V30 END CTAB
M  END
