
     RDKit          3D

  0  0  0  0  0  0  0  0  0  0999 V3000
M  V30 BEGIN CTAB
M  V30 COUNTS 38 39 0 0 0
M  V30 BEGIN ATOM
M  V30 1 N -4.94405 0.517727 -1.02182 0
M  V30 2 C -4.80741 -0.846287 -0.589671 0
M  V30 3 C -3.88465 -1.01622 0.584249 0
M  V30 4 N -2.54735 -0.579595 0.361262 0
M  V30 5 C -2.33991 0.824011 0.223374 0
M  V30 6 C -1.13171 1.28002 1.0604 0
M  V30 7 N 0.0498948 0.487323 0.634733 0
M  V30 8 C -0.157538 -0.916784 0.59379 0
M  V30 9 C -1.56212 -1.22455 1.17141 0
M  V30 10 C 1.2331 1.15421 0.344951 0
M  V30 11 O 1.17352 2.45287 0.508806 0
M  V30 12 C 2.52586 0.68985 -0.103266 0
M  V30 13 C 3.59188 1.61352 -0.209401 0
M  V30 14 C 4.83034 1.2295 -0.645832 0
M  V30 15 C 5.12816 -0.058028 -1.00858 0
M  V30 16 C 4.10842 -0.970455 -0.91358 0
M  V30 17 C 2.83871 -0.59422 -0.470026 0
M  V30 18 N 6.4265 -0.422916 -1.45807 0
M  V30 19 H -5.27707 0.553006 -2.01662 0
M  V30 20 H -5.49995 1.09017 -0.364723 0
M  V30 21 H -4.52527 -1.51011 -1.43807 0
M  V30 22 H -5.8461 -1.19606 -0.312973 0
M  V30 23 H -3.83615 -2.12711 0.787185 0
M  V30 24 H -4.29229 -0.511059 1.49237 0
M  V30 25 H -2.18545 1.12229 -0.830344 0
M  V30 26 H -3.18557 1.40242 0.628651 0
M  V30 27 H -1.34217 1.11791 2.11515 0
M  V30 28 H -0.97227 2.35104 0.783022 0
M  V30 29 H 0.554629 -1.47846 1.23494 0
M  V30 30 H -0.193177 -1.33615 -0.434014 0
M  V30 31 H -1.63007 -0.89351 2.21495 0
M  V30 32 H -1.65538 -2.32943 1.12836 0
M  V30 33 H 3.40735 2.63451 0.0653773 0
M  V30 34 H 5.6604 1.95316 -0.726217 0
M  V30 35 H 4.30928 -2.0008 -1.19456 0
M  V30 36 H 2.11103 -1.36508 -0.440274 0
M  V30 37 H 6.64567 -1.34174 -1.8974 0
M  V30 38 H 7.22092 0.245049 -1.355 0
M  V30 END ATOM
M  V30 BEGIN BOND
M  V30 1 1 1 2
M  V30 2 1 2 3
M  V30 3 1 3 4
M  V30 4 1 4 5
M  V30 5 1 5 6
M  V30 6 1 6 7
M  V30 7 1 7 8
M  V30 8 1 8 9
M  V30 9 1 7 10
M  V30 10 2 10 11
M  V30 11 1 10 12
M  V30 12 2 12 13
M  V30 13 1 13 14
M  V30 14 2 14 15
M  V30 15 1 15 16
M  V30 16 2 16 17
M  V30 17 1 15 18
M  V30 18 1 9 4
M  V30 19 1 17 12
M  V30 20 1 1 19
M  V30 21 1 1 20
M  V30 22 1 2 21
M  V30 23 1 2 22
M  V30 24 1 3 23
M  V30 25 1 3 24
M  V30 26 1 5 25
M  V30 27 1 5 26
M  V30 28 1 6 27
M  V30 29 1 6 28
M  V30 30 1 8 29
M  V30 31 1 8 30
M  V30 32 1 9 31
M  V30 33 1 9 32
M  V30 34 1 13 33
M  V30 35 1 14 34
M  V30 36 1 16 35
M  V30 37 1 17 36
M  V30 38 1 18 37
M  V30 39 1 18 38
M  V30 END BOND
M  V30 END CTAB
M  END
