
     RDKit          3D

  0  0  0  0  0  0  0  0  0  0999 V3000
M  V30 BEGIN CTAB
M  V30 COUNTS 30 30 0 0 0
M  V30 BEGIN ATOM
M  V30 1 N -2.1578 -0.910919 1.8266 0
M  V30 2 C -2.55181 -0.125573 0.67483 0
M  V30 3 C -1.36438 0.248508 -0.180445 0
M  V30 4 C -1.88285 1.06297 -1.35037 0
M  V30 5 C -0.38965 1.05992 0.608372 0
M  V30 6 C 0.810185 0.151747 0.908471 0
M  V30 7 N 1.43065 -0.1065 -0.347734 0
M  V30 8 C 0.630189 -0.762435 -1.31529 0
M  V30 9 C -0.758197 -1.01348 -0.756678 0
M  V30 10 S 3.06412 -0.504045 -0.299558 0
M  V30 11 O 3.57859 -0.698393 -1.68633 0
M  V30 12 O 3.3793 -1.72649 0.501164 0
M  V30 13 N 3.92705 0.853287 0.386907 0
M  V30 14 H -3.05242 -1.14208 2.3371 0
M  V30 15 H -1.58841 -0.365824 2.5075 0
M  V30 16 H -3.27617 -0.739684 0.103899 0
M  V30 17 H -3.03995 0.810301 1.05728 0
M  V30 18 H -2.40551 1.98724 -1.0011 0
M  V30 19 H -2.66723 0.467722 -1.88128 0
M  V30 20 H -1.10446 1.29414 -2.0901 0
M  V30 21 H -0.78833 1.53189 1.5025 0
M  V30 22 H 0.0246173 1.8484 -0.0839976 0
M  V30 23 H 0.472516 -0.801539 1.35359 0
M  V30 24 H 1.54107 0.654488 1.56512 0
M  V30 25 H 1.00865 -1.71392 -1.69315 0
M  V30 26 H 0.493221 -0.0895512 -2.19046 0
M  V30 27 H -0.771167 -1.79077 0.0168993 0
M  V30 28 H -1.44252 -1.34059 -1.58427 0
M  V30 29 H 4.22249 0.663036 1.35447 0
M  V30 30 H 4.65819 1.19815 -0.24395 0
M  V30 END ATOM
M  V30 BEGIN BOND
M  V30 1 1 1 2
M  V30 2 1 2 3
M  V30 3 1 3 4
M  V30 4 1 3 5
M  V30 5 1 5 6
M  V30 6 1 6 7
M  V30 7 1 7 8
M  V30 8 1 8 9
M  V30 9 1 7 10
M  V30 10 2 10 11
M  V30 11 2 10 12
M  V30 12 1 10 13
M  V30 13 1 9 3
M  V30 14 1 1 14
M  V30 15 1 1 15
M  V30 16 1 2 16
M  V30 17 1 2 17
M  V30 18 1 4 18
M  V30 19 1 4 19
M  V30 20 1 4 20
M  V30 21 1 5 21
M  V30 22 1 5 22
M  V30 23 1 6 23
M  V30 24 1 6 24
M  V30 25 1 8 25
M  V30 26 1 8 26
M  V30 27 1 9 27
M  V30 28 1 9 28
M  V30 29 1 13 29
M  V30 30 1 13 30
M  V30 END BOND
M  V30 END CTAB
M  END
