
     RDKit          3D

  0  0  0  0  0  0  0  0  0  0999 V3000
M  V30 BEGIN CTAB
M  V30 COUNTS 50 52 0 0 0
M  V30 BEGIN ATOM
M  V30 1 N 6.47354 1.22965 -1.58246 0
M  V30 2 C 6.43608 1.40793 -0.155901 0
M  V30 3 N 7.50617 1.70813 0.47992 0
M  V30 4 C 5.15762 1.23585 0.511452 0
M  V30 5 C 4.054 0.911585 -0.236923 0
M  V30 6 C 2.84243 0.743752 0.35871 0
M  V30 7 C 2.65914 0.88696 1.71936 0
M  V30 8 C 1.36429 0.718654 2.40011 0
M  V30 9 O 0.499772 -0.0350023 1.64283 0
M  V30 10 C 0.709312 -1.33963 1.296 0
M  V30 11 C 1.80352 -2.07276 1.6812 0
M  V30 12 C 1.99457 -3.40942 1.30806 0
M  V30 13 C 1.01301 -3.96891 0.519715 0
M  V30 14 C -0.0899781 -3.23918 0.128756 0
M  V30 15 C -0.276262 -1.9293 0.494739 0
M  V30 16 O -1.39536 -1.1888 0.0988174 0
M  V30 17 C -2.40973 -1.73997 -0.705442 0
M  V30 18 C -3.44614 -0.719778 -0.945219 0
M  V30 19 C -3.3512 0.526908 -0.387844 0
M  V30 20 C -4.36815 1.45984 -0.649474 0
M  V30 21 C -5.44038 1.14895 -1.44262 0
M  V30 22 C -5.53052 -0.120945 -2.00623 0
M  V30 23 C -4.52431 -1.02183 -1.73862 0
M  V30 24 C -6.47893 2.10411 -1.70811 0
M  V30 25 N -7.57034 1.74095 -2.53437 0
M  V30 26 N -6.46097 3.27645 -1.22705 0
M  V30 27 C 3.767 1.21036 2.45517 0
M  V30 28 C 5.0126 1.38851 1.88465 0
M  V30 29 H 7.09068 0.536459 -2.01997 0
M  V30 30 H 5.8516 1.82954 -2.16163 0
M  V30 31 H 7.55334 1.85013 1.4962 0
M  V30 32 H 4.14351 0.788814 -1.29984 0
M  V30 33 H 1.95615 0.483239 -0.239796 0
M  V30 34 H 0.980238 1.75403 2.6204 0
M  V30 35 H 1.57061 0.252512 3.38889 0
M  V30 36 H 2.59074 -1.6817 2.30688 0
M  V30 37 H 2.86758 -3.96412 1.62633 0
M  V30 38 H 1.13592 -5.0116 0.212834 0
M  V30 39 H -0.86031 -3.68947 -0.492863 0
M  V30 40 H -2.90878 -2.58981 -0.159468 0
M  V30 41 H -2.01636 -2.13201 -1.67839 0
M  V30 42 H -2.51156 0.779952 0.238025 0
M  V30 43 H -4.25027 2.41679 -0.193822 0
M  V30 44 H -6.38467 -0.327761 -2.62164 0
M  V30 45 H -4.64037 -2.01089 -2.20611 0
M  V30 46 H -7.7029 2.19734 -3.44695 0
M  V30 47 H -8.2279 1.01794 -2.21411 0
M  V30 48 H -5.70696 3.61155 -0.622116 0
M  V30 49 H 3.65726 1.33123 3.53426 0
M  V30 50 H 5.86166 1.64479 2.5072 0
M  V30 END ATOM
M  V30 BEGIN BOND
M  V30 1 1 1 2
M  V30 2 2 2 3 CFG=2
M  V30 3 1 2 4
M  V30 4 2 4 5
M  V30 5 1 5 6
M  V30 6 2 6 7
M  V30 7 1 7 8
M  V30 8 1 8 9
M  V30 9 1 9 10
M  V30 10 2 10 11
M  V30 11 1 11 12
M  V30 12 2 12 13
M  V30 13 1 13 14
M  V30 14 2 14 15
M  V30 15 1 15 16
M  V30 16 1 16 17
M  V30 17 1 17 18
M  V30 18 2 18 19
M  V30 19 1 19 20
M  V30 20 2 20 21
M  V30 21 1 21 22
M  V30 22 2 22 23
M  V30 23 1 21 24
M  V30 24 1 24 25
M  V30 25 2 24 26 CFG=2
M  V30 26 1 7 27
M  V30 27 2 27 28
M  V30 28 1 28 4
M  V30 29 1 15 10
M  V30 30 1 23 18
M  V30 31 1 1 29
M  V30 32 1 1 30
M  V30 33 1 3 31
M  V30 34 1 5 32
M  V30 35 1 6 33
M  V30 36 1 8 34
M  V30 37 1 8 35
M  V30 38 1 11 36
M  V30 39 1 12 37
M  V30 40 1 13 38
M  V30 41 1 14 39
M  V30 42 1 17 40
M  V30 43 1 17 41
M  V30 44 1 19 42
M  V30 45 1 20 43
M  V30 46 1 22 44
M  V30 47 1 23 45
M  V30 48 1 25 46
M  V30 49 1 25 47
M  V30 50 1 26 48
M  V30 51 1 27 49
M  V30 52 1 28 50
M  V30 END BOND
M  V30 END CTAB
M  END
