
     RDKit          3D

  0  0  0  0  0  0  0  0  0  0999 V3000
M  V30 BEGIN CTAB
M  V30 COUNTS 67 71 0 0 0
M  V30 BEGIN ATOM
M  V30 1 C -4.6029 3.39403 2.47651 0
M  V30 2 C -4.64457 2.64092 1.1849 0
M  V30 3 C -5.79377 2.7809 0.434583 0
M  V30 4 C -5.8516 2.09653 -0.754822 0
M  V30 5 C -7.04 2.18625 -1.62155 0
M  V30 6 N -4.82055 1.3464 -1.12192 0
M  V30 7 C -3.68989 1.19818 -0.401189 0
M  V30 8 N -3.62354 1.86761 0.770546 0
M  V30 9 N -2.63337 0.371566 -0.870375 0
M  V30 10 N -2.12908 0.411176 -2.09015 0
M  V30 11 C -1.14841 -0.494695 -2.21337 0
M  V30 12 C -1.03577 -1.13779 -0.99391 0
M  V30 13 C -1.97118 -0.582098 -0.170867 0
M  V30 14 N -2.20328 -0.945483 1.17244 0
M  V30 15 C -0.0471534 -2.21902 -0.75184 0
M  V30 16 C 1.33059 -1.65399 -0.803111 0
M  V30 17 C 2.43716 -2.26886 -1.38134 0
M  V30 18 C 2.43918 -3.60259 -2.03715 0
M  V30 19 N 3.49324 -1.4231 -1.22792 0
M  V30 20 N 3.1179 -0.32596 -0.594395 0
M  V30 21 C 1.80947 -0.451725 -0.33081 0
M  V30 22 N 1.06676 0.540485 0.33263 0
M  V30 23 C 3.98073 0.781679 -0.26322 0
M  V30 24 N 5.20157 0.578566 0.264865 0
M  V30 25 C 6.05511 1.5657 0.595515 0
M  V30 26 C 7.39675 1.30274 1.17732 0
M  V30 27 C 5.6675 2.86851 0.385672 0
M  V30 28 C 4.42176 3.09473 -0.153829 0
M  V30 29 N 3.59788 2.05134 -0.46996 0
M  V30 30 C 3.94125 4.48161 -0.406059 0
M  V30 31 C -0.317792 -3.06676 0.397223 0
M  V30 32 C -1.22652 -4.0978 0.358101 0
M  V30 33 C -1.49685 -4.91959 1.4266 0
M  V30 34 C -0.835805 -4.71871 2.60644 0
M  V30 35 C 0.0841798 -3.69642 2.69072 0
M  V30 36 C 0.339858 -2.87462 1.58652 0
M  V30 37 F 0.719989 -3.5215 3.86408 0
M  V30 38 F -1.07152 -5.51543 3.70643 0
M  V30 39 C -0.334356 -0.758523 -3.43505 0
M  V30 40 H -5.11672 4.37263 2.36808 0
M  V30 41 H -5.24753 2.79572 3.1844 0
M  V30 42 H -3.58546 3.46349 2.87983 0
M  V30 43 H -6.63598 3.393 0.733601 0
M  V30 44 H -6.76677 1.93681 -2.66527 0
M  V30 45 H -7.83098 1.48827 -1.3038 0
M  V30 46 H -7.3883 3.24208 -1.59686 0
M  V30 47 H -2.88884 -1.66952 1.47626 0
M  V30 48 H -1.66072 -0.466919 1.92406 0
M  V30 49 H -0.158473 -2.89331 -1.66473 0
M  V30 50 H 2.82851 -4.3475 -1.28476 0
M  V30 51 H 1.45344 -3.87825 -2.41088 0
M  V30 52 H 3.21199 -3.62529 -2.8602 0
M  V30 53 H 0.790028 1.40903 -0.182786 0
M  V30 54 H 0.760165 0.474848 1.33289 0
M  V30 55 H 7.2919 0.391426 1.8191 0
M  V30 56 H 8.0568 0.981583 0.324614 0
M  V30 57 H 7.79288 2.16096 1.71864 0
M  V30 58 H 6.30305 3.70058 0.628652 0
M  V30 59 H 4.70207 5.1912 -0.0336518 0
M  V30 60 H 3.78299 4.65424 -1.49859 0
M  V30 61 H 3.01003 4.64371 0.183218 0
M  V30 62 H -1.75909 -4.26249 -0.586626 0
M  V30 63 H -2.23105 -5.73022 1.34877 0
M  V30 64 H 1.07991 -2.11153 1.76915 0
M  V30 65 H 0.594128 -0.175319 -3.46878 0
M  V30 66 H -0.920426 -0.575648 -4.36548 0
M  V30 67 H -0.0505579 -1.84783 -3.4853 0
M  V30 END ATOM
M  V30 BEGIN BOND
M  V30 1 1 1 2
M  V30 2 2 2 3
M  V30 3 1 3 4
M  V30 4 1 4 5
M  V30 5 2 4 6
M  V30 6 1 6 7
M  V30 7 2 7 8
M  V30 8 1 7 9
M  V30 9 1 9 10
M  V30 10 2 10 11
M  V30 11 1 11 12
M  V30 12 2 12 13
M  V30 13 1 13 14
M  V30 14 1 12 15
M  V30 15 1 15 16
M  V30 16 1 16 17
M  V30 17 1 17 18
M  V30 18 2 17 19
M  V30 19 1 19 20
M  V30 20 1 20 21
M  V30 21 1 21 22
M  V30 22 1 20 23
M  V30 23 2 23 24
M  V30 24 1 24 25
M  V30 25 1 25 26
M  V30 26 2 25 27
M  V30 27 1 27 28
M  V30 28 2 28 29
M  V30 29 1 28 30
M  V30 30 1 15 31
M  V30 31 2 31 32
M  V30 32 1 32 33
M  V30 33 2 33 34
M  V30 34 1 34 35
M  V30 35 2 35 36
M  V30 36 1 35 37
M  V30 37 1 34 38
M  V30 38 1 11 39
M  V30 39 1 8 2
M  V30 40 1 13 9
M  V30 41 2 21 16
M  V30 42 1 29 23
M  V30 43 1 36 31
M  V30 44 1 1 40
M  V30 45 1 1 41
M  V30 46 1 1 42
M  V30 47 1 3 43
M  V30 48 1 5 44
M  V30 49 1 5 45
M  V30 50 1 5 46
M  V30 51 1 14 47
M  V30 52 1 14 48
M  V30 53 1 15 49
M  V30 54 1 18 50
M  V30 55 1 18 51
M  V30 56 1 18 52
M  V30 57 1 22 53
M  V30 58 1 22 54
M  V30 59 1 26 55
M  V30 60 1 26 56
M  V30 61 1 26 57
M  V30 62 1 27 58
M  V30 63 1 30 59
M  V30 64 1 30 60
M  V30 65 1 30 61
M  V30 66 1 32 62
M  V30 67 1 33 63
M  V30 68 1 36 64
M  V30 69 1 39 65
M  V30 70 1 39 66
M  V30 71 1 39 67
M  V30 END BOND
M  V30 END CTAB
M  END
