
     RDKit          3D

  0  0  0  0  0  0  0  0  0  0999 V3000
M  V30 BEGIN CTAB
M  V30 COUNTS 32 32 0 0 0
M  V30 BEGIN ATOM
M  V30 1 C 4.22098 0.421711 0.79165 0
M  V30 2 C 3.9966 0.705209 -0.676796 0
M  V30 3 O 2.65644 1.135 -0.916416 0
M  V30 4 C 1.56109 0.362625 -0.621505 0
M  V30 5 O 1.69487 -0.768652 -0.122392 0
M  V30 6 C 0.199569 0.876208 -0.898349 0
M  V30 7 C -0.806833 -0.14154 -0.49221 0
M  V30 8 C -0.955517 -1.23567 -1.356 0
M  V30 9 N -0.177157 -1.30333 -2.53444 0
M  V30 10 C -1.86439 -2.20187 -1.0077 0
M  V30 11 C -2.60029 -2.09691 0.147041 0
M  V30 12 C -2.43676 -1.01234 0.979794 0
M  V30 13 C -1.51265 -0.00828328 0.646471 0
M  V30 14 O -1.3706 1.06798 1.49794 0
M  V30 15 C -2.18105 2.21436 1.36442 0
M  V30 16 F -3.09829 2.29689 2.41339 0
M  V30 17 F -1.49805 3.39717 1.37644 0
M  V30 18 N -3.16673 -0.851205 2.18184 0
M  V30 19 H 3.86183 -0.58067 1.03227 0
M  V30 20 H 5.32689 0.418412 0.963122 0
M  V30 21 H 3.75554 1.20938 1.44593 0
M  V30 22 H 4.70604 1.46842 -1.0368 0
M  V30 23 H 4.21292 -0.233435 -1.22245 0
M  V30 24 H 0.177003 1.0122 -2.02694 0
M  V30 25 H 0.0615459 1.85903 -0.457267 0
M  V30 26 H -0.283937 -0.562732 -3.24251 0
M  V30 27 H 0.483531 -2.07974 -2.67947 0
M  V30 28 H -1.9947 -3.05461 -1.66053 0
M  V30 29 H -3.3175 -2.84585 0.435197 0
M  V30 30 H -2.78187 2.11478 0.42405 0
M  V30 31 H -2.68712 -0.54538 3.04679 0
M  V30 32 H -4.18142 -1.03715 2.20541 0
M  V30 END ATOM
M  V30 BEGIN BOND
M  V30 1 1 1 2
M  V30 2 1 2 3
M  V30 3 1 3 4
M  V30 4 2 4 5
M  V30 5 1 4 6
M  V30 6 1 6 7
M  V30 7 2 7 8
M  V30 8 1 8 9
M  V30 9 1 8 10
M  V30 10 2 10 11
M  V30 11 1 11 12
M  V30 12 2 12 13
M  V30 13 1 13 14
M  V30 14 1 14 15
M  V30 15 1 15 16
M  V30 16 1 15 17
M  V30 17 1 12 18
M  V30 18 1 13 7
M  V30 19 1 1 19
M  V30 20 1 1 20
M  V30 21 1 1 21
M  V30 22 1 2 22
M  V30 23 1 2 23
M  V30 24 1 6 24
M  V30 25 1 6 25
M  V30 26 1 9 26
M  V30 27 1 9 27
M  V30 28 1 10 28
M  V30 29 1 11 29
M  V30 30 1 15 30
M  V30 31 1 18 31
M  V30 32 1 18 32
M  V30 END BOND
M  V30 END CTAB
M  END
