
     RDKit          3D

  0  0  0  0  0  0  0  0  0  0999 V3000
M  V30 BEGIN CTAB
M  V30 COUNTS 25 26 0 0 0
M  V30 BEGIN ATOM
M  V30 1 N -3.7777 0.829499 -0.98094 0
M  V30 2 C -2.65777 0.695276 -0.113208 0
M  V30 3 C -2.25788 1.55622 0.883784 0
M  V30 4 N -1.16436 1.03482 1.43593 0
M  V30 5 N -0.833909 -0.125421 0.84467 0
M  V30 6 C -1.73055 -0.352795 -0.103146 0
M  V30 7 N -1.7643 -1.47512 -0.978936 0
M  V30 8 C 0.323433 -0.919735 1.24364 0
M  V30 9 C 1.52497 -0.491859 0.463875 0
M  V30 10 C 2.33801 0.531625 0.923065 0
M  V30 11 C 3.45746 0.964318 0.245485 0
M  V30 12 C 3.75432 0.328038 -0.941578 0
M  V30 13 N 2.96881 -0.675876 -1.4054 0
M  V30 14 C 1.87755 -1.08525 -0.728168 0
M  V30 15 H -3.64974 0.618636 -1.99291 0
M  V30 16 H -4.69699 1.13593 -0.578016 0
M  V30 17 H -2.78698 2.47101 1.11751 0
M  V30 18 H -2.52878 -2.1814 -0.867034 0
M  V30 19 H -1.06287 -1.62602 -1.72649 0
M  V30 20 H 0.131754 -1.99312 1.04897 0
M  V30 21 H 0.49152 -0.762594 2.32088 0
M  V30 22 H 2.07019 0.997318 1.8487 0
M  V30 23 H 4.0921 1.76202 0.602291 0
M  V30 24 H 4.63702 0.663473 -1.48362 0
M  V30 25 H 1.24469 -1.89898 -1.10616 0
M  V30 END ATOM
M  V30 BEGIN BOND
M  V30 1 1 1 2
M  V30 2 1 2 3
M  V30 3 2 3 4
M  V30 4 1 4 5
M  V30 5 1 5 6
M  V30 6 1 6 7
M  V30 7 1 5 8
M  V30 8 1 8 9
M  V30 9 2 9 10
M  V30 10 1 10 11
M  V30 11 2 11 12
M  V30 12 1 12 13
M  V30 13 2 13 14
M  V30 14 2 6 2
M  V30 15 1 14 9
M  V30 16 1 1 15
M  V30 17 1 1 16
M  V30 18 1 3 17
M  V30 19 1 7 18
M  V30 20 1 7 19
M  V30 21 1 8 20
M  V30 22 1 8 21
M  V30 23 1 10 22
M  V30 24 1 11 23
M  V30 25 1 12 24
M  V30 26 1 14 25
M  V30 END BOND
M  V30 END CTAB
M  END
