
     RDKit          3D

  0  0  0  0  0  0  0  0  0  0999 V3000
M  V30 BEGIN CTAB
M  V30 COUNTS 52 55 0 0 0
M  V30 BEGIN ATOM
M  V30 1 O -4.06498 1.16174 2.25393 0
M  V30 2 C -5.05326 0.324775 1.7038 0
M  V30 3 C -4.46044 -0.741728 0.883827 0
M  V30 4 N -3.64076 -0.34148 -0.254545 0
M  V30 5 C -2.28178 -0.751406 -0.125504 0
M  V30 6 N -2.09429 -2.01996 0.394532 0
M  V30 7 C -0.889877 -2.54908 0.520714 0
M  V30 8 N -0.737781 -3.87864 1.07019 0
M  V30 9 C 0.206428 -1.81346 0.122177 0
M  V30 10 C 0.0690654 -0.525273 -0.409079 0
M  V30 11 C -1.21224 -0.00518679 -0.524345 0
M  V30 12 C -1.35406 1.33338 -1.03067 0
M  V30 13 N -1.5045 2.4426 -1.42967 0
M  V30 14 C 1.17875 0.213353 -0.814847 0
M  V30 15 C 1.43383 1.52803 -1.38807 0
M  V30 16 C 2.94134 1.5483 -1.54077 0
M  V30 17 O 3.54629 2.55458 -2.03172 0
M  V30 18 N 3.48594 0.360865 -1.08144 0
M  V30 19 C 2.4088 -0.441937 -0.643766 0
M  V30 20 N 2.50627 -1.68039 -0.129859 0
M  V30 21 C 1.43994 -2.38652 0.258711 0
M  V30 22 N 1.59625 -3.70662 0.800991 0
M  V30 23 C 4.91126 0.0221394 -1.0627 0
M  V30 24 C 5.4991 0.460911 0.234816 0
M  V30 25 C 6.83273 0.267578 0.605234 0
M  V30 26 C 6.98362 0.807427 1.86319 0
M  V30 27 C 5.72401 1.30625 2.19718 0
M  V30 28 O 4.89499 1.07566 1.20754 0
M  V30 29 C -4.22723 0.228667 -1.39326 0
M  V30 30 C -4.95304 1.51746 -1.34015 0
M  V30 31 O -5.37582 1.77446 -2.68798 0
M  V30 32 H -4.56076 1.93502 2.62449 0
M  V30 33 H -5.42414 -0.228912 2.65763 0
M  V30 34 H -5.9464 0.822491 1.36799 0
M  V30 35 H -5.29474 -1.34204 0.41059 0
M  V30 36 H -3.94921 -1.47481 1.54805 0
M  V30 37 H -0.620926 -3.95315 2.09083 0
M  V30 38 H -0.753616 -4.71177 0.477904 0
M  V30 39 H 1.0968 1.6891 -2.42425 0
M  V30 40 H 1.27695 2.39007 -0.694803 0
M  V30 41 H 1.72471 -3.77002 1.82897 0
M  V30 42 H 1.58067 -4.51971 0.141589 0
M  V30 43 H 5.02772 -1.06867 -1.16037 0
M  V30 44 H 5.46232 0.591995 -1.84544 0
M  V30 45 H 7.6241 -0.20432 0.051793 0
M  V30 46 H 7.8901 0.84669 2.48406 0
M  V30 47 H 5.53945 1.8001 3.15658 0
M  V30 48 H -3.48276 0.33722 -2.26031 0
M  V30 49 H -4.93622 -0.557389 -1.8896 0
M  V30 50 H -4.38924 2.39561 -1.03498 0
M  V30 51 H -5.87878 1.52191 -0.711067 0
M  V30 52 H -5.79457 0.943374 -3.04809 0
M  V30 END ATOM
M  V30 BEGIN BOND
M  V30 1 1 1 2
M  V30 2 1 2 3
M  V30 3 1 3 4
M  V30 4 1 4 5
M  V30 5 2 5 6
M  V30 6 1 6 7
M  V30 7 1 7 8
M  V30 8 2 7 9
M  V30 9 1 9 10
M  V30 10 2 10 11
M  V30 11 1 11 12
M  V30 12 3 12 13
M  V30 13 1 10 14
M  V30 14 1 14 15
M  V30 15 1 15 16
M  V30 16 2 16 17
M  V30 17 1 16 18
M  V30 18 1 18 19
M  V30 19 1 19 20
M  V30 20 2 20 21
M  V30 21 1 21 22
M  V30 22 1 18 23
M  V30 23 1 23 24
M  V30 24 2 24 25
M  V30 25 1 25 26
M  V30 26 2 26 27
M  V30 27 1 27 28
M  V30 28 1 4 29
M  V30 29 1 29 30
M  V30 30 1 30 31
M  V30 31 1 11 5
M  V30 32 2 19 14
M  V30 33 1 28 24
M  V30 34 1 21 9
M  V30 35 1 1 32
M  V30 36 1 2 33
M  V30 37 1 2 34
M  V30 38 1 3 35
M  V30 39 1 3 36
M  V30 40 1 8 37
M  V30 41 1 8 38
M  V30 42 1 15 39
M  V30 43 1 15 40
M  V30 44 1 22 41
M  V30 45 1 22 42
M  V30 46 1 23 43
M  V30 47 1 23 44
M  V30 48 1 25 45
M  V30 49 1 26 46
M  V30 50 1 27 47
M  V30 51 1 29 48
M  V30 52 1 29 49
M  V30 53 1 30 50
M  V30 54 1 30 51
M  V30 55 1 31 52
M  V30 END BOND
M  V30 END CTAB
M  END
