
     RDKit          3D

  0  0  0  0  0  0  0  0  0  0999 V3000
M  V30 BEGIN CTAB
M  V30 COUNTS 38 39 0 0 0
M  V30 BEGIN ATOM
M  V30 1 O -5.08668 -1.37633 -0.663856 0
M  V30 2 C -4.17002 -0.360685 -0.808963 0
M  V30 3 C -3.3334 -0.239319 0.455139 0 CFG=1
M  V30 4 C -2.40878 0.903057 0.355335 0
M  V30 5 O -2.63588 1.97586 1.01767 0
M  V30 6 N -1.27544 0.845372 -0.452215 0
M  V30 7 C -0.930062 -0.32486 -1.22066 0
M  V30 8 C 0.601968 -0.420811 -1.18131 0
M  V30 9 C 1.0485 0.117732 0.170035 0
M  V30 10 C 0.891974 1.62136 0.176262 0
M  V30 11 C -0.356641 1.9849 -0.569243 0
M  V30 12 C 2.4244 -0.312095 0.422486 0
M  V30 13 C 2.69881 -1.13592 1.48735 0
M  V30 14 C 3.97843 -1.57336 1.77391 0
M  V30 15 N 4.96833 -1.16446 0.968433 0
M  V30 16 C 4.71719 -0.355088 -0.0822898 0
M  V30 17 N 3.47644 0.0526911 -0.337647 0
M  V30 18 N 5.84025 0.0225467 -0.877533 0
M  V30 19 N -4.27569 0.0487493 1.53654 0
M  V30 20 H -5.32772 -1.77606 -1.48266 0
M  V30 21 H -4.69392 0.576535 -1.01651 0
M  V30 22 H -3.50011 -0.593902 -1.65252 0
M  V30 23 H -2.79746 -1.16625 0.689898 0
M  V30 24 H -1.21319 -0.223658 -2.2779 0
M  V30 25 H -1.32099 -1.25545 -0.754752 0
M  V30 26 H 0.971133 0.242782 -1.97672 0
M  V30 27 H 0.907897 -1.47275 -1.29806 0
M  V30 28 H 0.380763 -0.308062 0.918661 0
M  V30 29 H 0.71754 1.90629 1.25296 0
M  V30 30 H 1.78564 2.15994 -0.141864 0
M  V30 31 H -0.80299 2.90383 -0.168387 0
M  V30 32 H -0.147927 2.08747 -1.65477 0
M  V30 33 H 1.91414 -1.47484 2.14618 0
M  V30 34 H 4.16586 -2.22217 2.61963 0
M  V30 35 H 6.22071 -0.592727 -1.61595 0
M  V30 36 H 6.27993 0.932362 -0.708008 0
M  V30 37 H -4.77465 -0.808992 1.81133 0
M  V30 38 H -4.93836 0.776325 1.19798 0
M  V30 END ATOM
M  V30 BEGIN BOND
M  V30 1 1 1 2
M  V30 2 1 2 3
M  V30 3 1 3 4
M  V30 4 2 4 5
M  V30 5 1 4 6
M  V30 6 1 6 7
M  V30 7 1 7 8
M  V30 8 1 8 9
M  V30 9 1 9 10
M  V30 10 1 10 11
M  V30 11 1 9 12
M  V30 12 2 12 13
M  V30 13 1 13 14
M  V30 14 2 14 15
M  V30 15 1 15 16
M  V30 16 2 16 17
M  V30 17 1 16 18
M  V30 18 1 3 19
M  V30 19 1 11 6
M  V30 20 1 17 12
M  V30 21 1 1 20
M  V30 22 1 2 21
M  V30 23 1 2 22
M  V30 24 1 3 23 CFG=1
M  V30 25 1 7 24
M  V30 26 1 7 25
M  V30 27 1 8 26
M  V30 28 1 8 27
M  V30 29 1 9 28
M  V30 30 1 10 29
M  V30 31 1 10 30
M  V30 32 1 11 31
M  V30 33 1 11 32
M  V30 34 1 13 33
M  V30 35 1 14 34
M  V30 36 1 18 35
M  V30 37 1 18 36
M  V30 38 1 19 37
M  V30 39 1 19 38
M  V30 END BOND
M  V30 END CTAB
M  END
