
     RDKit          3D

  0  0  0  0  0  0  0  0  0  0999 V3000
M  V30 BEGIN CTAB
M  V30 COUNTS 55 57 0 0 0
M  V30 BEGIN ATOM
M  V30 1 C -1.58088 -0.96208 -3.39151 0
M  V30 2 C -1.63682 -1.09004 -1.87396 0
M  V30 3 C -0.807244 -0.00920618 -1.22397 0
M  V30 4 N -0.716105 -0.000266201 0.149894 0
M  V30 5 C -1.74345 0.291122 1.03745 0 CFG=1
M  V30 6 C -2.35359 1.65673 0.947374 0
M  V30 7 C -3.5657 1.75713 0.0940948 0
M  V30 8 C -4.60744 0.758625 0.58819 0
M  V30 9 C -4.12698 -0.408858 1.08976 0
M  V30 10 C -2.70126 -0.823157 1.20914 0
M  V30 11 S -5.59317 -1.21259 1.52034 0
M  V30 12 C -6.69968 -0.00459967 1.0301 0
M  V30 13 N -5.89809 0.931883 0.571357 0
M  V30 14 N -8.13386 0.0624993 1.07007 0
M  V30 15 C 0.563603 -0.316718 0.716547 0
M  V30 16 C 1.61249 0.7314 0.459085 0
M  V30 17 C 2.9488 0.294256 1.07374 0 CFG=2
M  V30 18 C 4.00712 1.32404 0.838438 0
M  V30 19 C 4.67058 1.19858 -0.519886 0
M  V30 20 C 5.28419 -0.148527 -0.722469 0 CFG=2
M  V30 21 C 4.85174 -1.0864 0.37583 0
M  V30 22 C 3.34864 -1.04959 0.472798 0
M  V30 23 N 6.72468 -0.0860227 -0.863667 0
M  V30 24 H -2.56685 -1.00767 -3.86857 0
M  V30 25 H -1.09174 -0.00620523 -3.68957 0
M  V30 26 H -0.997052 -1.84242 -3.77134 0
M  V30 27 H -2.72099 -1.00268 -1.64027 0
M  V30 28 H -1.28141 -2.06426 -1.53046 0
M  V30 29 H 0.244314 -0.179113 -1.62452 0
M  V30 30 H -1.04961 1.00425 -1.67152 0
M  V30 31 H -1.19689 0.351404 2.05157 0
M  V30 32 H -2.62592 2.04854 1.95157 0
M  V30 33 H -1.58763 2.3484 0.538533 0
M  V30 34 H -3.94236 2.79652 0.177973 0
M  V30 35 H -3.44487 1.54645 -0.965813 0
M  V30 36 H -2.46911 -1.71427 0.569728 0
M  V30 37 H -2.63876 -1.28836 2.25386 0
M  V30 38 H -8.71283 0.00793554 0.205296 0
M  V30 39 H -8.54863 0.16934 2.02548 0
M  V30 40 H 0.420811 -0.415332 1.80611 0
M  V30 41 H 0.90798 -1.27169 0.287088 0
M  V30 42 H 1.30378 1.67356 0.945938 0
M  V30 43 H 1.7659 0.916359 -0.624285 0
M  V30 44 H 2.79463 0.146881 2.15477 0
M  V30 45 H 3.60246 2.33393 0.907857 0
M  V30 46 H 4.84604 1.23888 1.58841 0
M  V30 47 H 5.49214 1.94836 -0.543364 0
M  V30 48 H 3.95714 1.43994 -1.30993 0
M  V30 49 H 4.89902 -0.583353 -1.68654 0
M  V30 50 H 5.19502 -2.10871 0.0706504 0
M  V30 51 H 5.37265 -0.847259 1.3164 0
M  V30 52 H 2.94242 -1.90503 1.03803 0
M  V30 53 H 2.95163 -1.02115 -0.576847 0
M  V30 54 H 7.13632 -1.02969 -0.951624 0
M  V30 55 H 7.19482 0.40329 -0.0833671 0
M  V30 END ATOM
M  V30 BEGIN BOND
M  V30 1 1 1 2
M  V30 2 1 2 3
M  V30 3 1 3 4
M  V30 4 1 4 5
M  V30 5 1 5 6
M  V30 6 1 6 7
M  V30 7 1 7 8
M  V30 8 2 8 9
M  V30 9 1 9 10
M  V30 10 1 9 11
M  V30 11 1 11 12
M  V30 12 2 12 13
M  V30 13 1 12 14
M  V30 14 1 4 15
M  V30 15 1 15 16
M  V30 16 1 16 17
M  V30 17 1 17 18
M  V30 18 1 18 19
M  V30 19 1 19 20
M  V30 20 1 20 21
M  V30 21 1 21 22
M  V30 22 1 20 23
M  V30 23 1 10 5
M  V30 24 1 22 17
M  V30 25 1 13 8
M  V30 26 1 1 24
M  V30 27 1 1 25
M  V30 28 1 1 26
M  V30 29 1 2 27
M  V30 30 1 2 28
M  V30 31 1 3 29
M  V30 32 1 3 30
M  V30 33 1 5 31 CFG=1
M  V30 34 1 6 32
M  V30 35 1 6 33
M  V30 36 1 7 34
M  V30 37 1 7 35
M  V30 38 1 10 36
M  V30 39 1 10 37
M  V30 40 1 14 38
M  V30 41 1 14 39
M  V30 42 1 15 40
M  V30 43 1 15 41
M  V30 44 1 16 42
M  V30 45 1 16 43
M  V30 46 1 17 44 CFG=1
M  V30 47 1 18 45
M  V30 48 1 18 46
M  V30 49 1 19 47
M  V30 50 1 19 48
M  V30 51 1 20 49 CFG=3
M  V30 52 1 21 50
M  V30 53 1 21 51
M  V30 54 1 22 52
M  V30 55 1 22 53
M  V30 56 1 23 54
M  V30 57 1 23 55
M  V30 END BOND
M  V30 END CTAB
M  END
