
     RDKit          3D

  0  0  0  0  0  0  0  0  0  0999 V3000
M  V30 BEGIN CTAB
M  V30 COUNTS 31 32 0 0 0
M  V30 BEGIN ATOM
M  V30 1 C -4.19827 0.248599 -1.01734 0
M  V30 2 C -2.99089 0.237761 -0.0930267 0
M  V30 3 C -1.73754 -0.224648 -0.839995 0
M  V30 4 C -0.586492 -0.218346 0.104454 0 CFG=2
M  V30 5 C -0.268931 1.12455 0.711702 0
M  V30 6 C 0.684541 0.477661 -0.199011 0 CFG=1
M  V30 7 C 1.92996 -0.0381616 0.424352 0
M  V30 8 N 2.05496 -0.618581 1.64351 0
M  V30 9 N 3.32001 -0.949401 1.85421 0
M  V30 10 C 4.05089 -0.585494 0.761615 0
M  V30 11 N 3.1709 -0.0342062 -0.0875949 0
M  V30 12 N 3.52207 0.475078 -1.34424 0
M  V30 13 N 5.44001 -0.739617 0.535482 0
M  V30 14 C -3.28218 -0.637622 1.08736 0
M  V30 15 H -4.19926 1.20059 -1.58632 0
M  V30 16 H -4.02797 -0.565783 -1.76825 0
M  V30 17 H -5.13762 0.105928 -0.472814 0
M  V30 18 H -2.86251 1.2788 0.258348 0
M  V30 19 H -1.92176 -1.18586 -1.34445 0
M  V30 20 H -1.61263 0.528026 -1.6705 0
M  V30 21 H -0.491726 -1.12819 0.724539 0
M  V30 22 H -0.152331 1.0936 1.8159 0
M  V30 23 H -0.796042 2.0222 0.337037 0
M  V30 24 H 0.826228 0.912193 -1.20749 0
M  V30 25 H 3.61641 1.51221 -1.50039 0
M  V30 26 H 3.69762 -0.15071 -2.14983 0
M  V30 27 H 6.02394 0.125438 0.38467 0
M  V30 28 H 5.90623 -1.67268 0.512435 0
M  V30 29 H -3.74701 -1.57022 0.70279 0
M  V30 30 H -2.32051 -0.888697 1.59349 0
M  V30 31 H -3.9101 -0.134405 1.82937 0
M  V30 END ATOM
M  V30 BEGIN BOND
M  V30 1 1 1 2
M  V30 2 1 2 3
M  V30 3 1 3 4
M  V30 4 1 4 5
M  V30 5 1 5 6
M  V30 6 1 6 7
M  V30 7 2 7 8
M  V30 8 1 8 9
M  V30 9 2 9 10
M  V30 10 1 10 11
M  V30 11 1 11 12
M  V30 12 1 10 13
M  V30 13 1 2 14
M  V30 14 1 6 4
M  V30 15 1 11 7
M  V30 16 1 1 15
M  V30 17 1 1 16
M  V30 18 1 1 17
M  V30 19 1 2 18
M  V30 20 1 3 19
M  V30 21 1 3 20
M  V30 22 1 4 21 CFG=1
M  V30 23 1 5 22
M  V30 24 1 5 23
M  V30 25 1 6 24 CFG=3
M  V30 26 1 12 25
M  V30 27 1 12 26
M  V30 28 1 13 27
M  V30 29 1 13 28
M  V30 30 1 14 29
M  V30 31 1 14 30
M  V30 32 1 14 31
M  V30 END BOND
M  V30 END CTAB
M  END
