
     RDKit          3D

  0  0  0  0  0  0  0  0  0  0999 V3000
M  V30 BEGIN CTAB
M  V30 COUNTS 24 24 0 0 0
M  V30 BEGIN ATOM
M  V30 1 C -0.870061 -1.45932 -1.55556 0
M  V30 2 C -0.904113 -0.747602 -0.229935 0
M  V30 3 N -1.12571 -1.77629 0.789853 0
M  V30 4 C -2.02333 0.188086 -0.15651 0
M  V30 5 N -2.27724 0.981082 0.984606 0
M  V30 6 S -3.02533 0.33315 -1.43188 0
M  V30 7 C 0.418776 -0.093444 -0.0328939 0
M  V30 8 C 1.33685 -0.692936 0.798832 0
M  V30 9 C 2.58414 -0.106838 1.00559 0
M  V30 10 C 2.91679 1.07549 0.384403 0
M  V30 11 C 2.00393 1.68355 -0.450502 0
M  V30 12 C 0.777376 1.07735 -0.634142 0
M  V30 13 H -1.68033 -2.19831 -1.67594 0
M  V30 14 H -0.888862 -0.742063 -2.41935 0
M  V30 15 H 0.128448 -1.97262 -1.61173 0
M  V30 16 H -1.36322 -1.29562 1.68482 0
M  V30 17 H -1.88391 -2.38046 0.44654 0
M  V30 18 H -2.56812 1.96732 0.837152 0
M  V30 19 H -2.19369 0.647666 1.96458 0
M  V30 20 H 1.14004 -1.62502 1.31967 0
M  V30 21 H 3.29004 -0.598336 1.66523 0
M  V30 22 H 3.87722 1.54052 0.534558 0
M  V30 23 H 2.2875 2.60999 -0.926323 0
M  V30 24 H 0.0428172 1.54413 -1.29109 0
M  V30 END ATOM
M  V30 BEGIN BOND
M  V30 1 1 1 2
M  V30 2 1 2 3
M  V30 3 1 2 4
M  V30 4 1 4 5
M  V30 5 2 4 6
M  V30 6 1 2 7
M  V30 7 2 7 8
M  V30 8 1 8 9
M  V30 9 2 9 10
M  V30 10 1 10 11
M  V30 11 2 11 12
M  V30 12 1 12 7
M  V30 13 1 1 13
M  V30 14 1 1 14
M  V30 15 1 1 15
M  V30 16 1 3 16
M  V30 17 1 3 17
M  V30 18 1 5 18
M  V30 19 1 5 19
M  V30 20 1 8 20
M  V30 21 1 9 21
M  V30 22 1 10 22
M  V30 23 1 11 23
M  V30 24 1 12 24
M  V30 END BOND
M  V30 END CTAB
M  END
