
     RDKit          3D

  0  0  0  0  0  0  0  0  0  0999 V3000
M  V30 BEGIN CTAB
M  V30 COUNTS 27 27 0 0 0
M  V30 BEGIN ATOM
M  V30 1 N 3.23915 0.181962 -0.101019 0
M  V30 2 C 2.18538 -0.662567 -0.53188 0
M  V30 3 S 2.56489 -1.86996 -1.55255 0
M  V30 4 C 0.819417 -0.387662 -0.0249092 0
M  V30 5 N 0.930071 -0.513907 1.44283 0
M  V30 6 C -0.120643 -1.54227 -0.415487 0
M  V30 7 C -1.52771 -1.26942 -0.208638 0
M  V30 8 C -2.53272 -0.293313 0.156397 0
M  V30 9 C -1.94089 1.0779 0.565301 0
M  V30 10 C -0.902431 1.50448 -0.396586 0
M  V30 11 C 0.416794 0.946388 -0.451611 0
M  V30 12 H 3.32337 1.12985 -0.531631 0
M  V30 13 H 3.94159 -0.0702808 0.616829 0
M  V30 14 H 1.53488 0.219873 1.84393 0
M  V30 15 H 1.36191 -1.45306 1.59674 0
M  V30 16 H 0.287841 -2.42945 0.170491 0
M  V30 17 H 0.174288 -1.93223 -1.44451 0
M  V30 18 H -1.20631 -1.12922 0.86973 0
M  V30 19 H -1.32987 -0.527265 -1.04163 0
M  V30 20 H -3.32873 -0.0522628 -0.615024 0
M  V30 21 H -3.2299 -0.57281 1.007 0
M  V30 22 H -2.77464 1.80939 0.525927 0
M  V30 23 H -1.609 1.03952 1.62041 0
M  V30 24 H -0.82674 2.63312 -0.266173 0
M  V30 25 H -1.39437 1.46078 -1.42049 0
M  V30 26 H 1.13428 1.63922 0.101231 0
M  V30 27 H 0.810104 1.06319 -1.51467 0
M  V30 END ATOM
M  V30 BEGIN BOND
M  V30 1 1 1 2
M  V30 2 2 2 3
M  V30 3 1 2 4
M  V30 4 1 4 5
M  V30 5 1 4 6
M  V30 6 1 6 7
M  V30 7 1 7 8
M  V30 8 1 8 9
M  V30 9 1 9 10
M  V30 10 1 10 11
M  V30 11 1 11 4
M  V30 12 1 1 12
M  V30 13 1 1 13
M  V30 14 1 5 14
M  V30 15 1 5 15
M  V30 16 1 6 16
M  V30 17 1 6 17
M  V30 18 1 7 18
M  V30 19 1 7 19
M  V30 20 1 8 20
M  V30 21 1 8 21
M  V30 22 1 9 22
M  V30 23 1 9 23
M  V30 24 1 10 24
M  V30 25 1 10 25
M  V30 26 1 11 26
M  V30 27 1 11 27
M  V30 END BOND
M  V30 END CTAB
M  END
