
     RDKit          3D

  0  0  0  0  0  0  0  0  0  0999 V3000
M  V30 BEGIN CTAB
M  V30 COUNTS 48 51 0 0 0
M  V30 BEGIN ATOM
M  V30 1 C -6.84953 -0.543244 -0.765177 0
M  V30 2 C -6.46677 -0.174191 0.642182 0
M  V30 3 C -5.41097 0.866913 0.608286 0
M  V30 4 C -5.76081 2.17442 0.889517 0
M  V30 5 C -4.84889 3.20607 0.882462 0
M  V30 6 C -3.53158 2.95031 0.586745 0
M  V30 7 C -3.16888 1.6433 0.303112 0
M  V30 8 C -4.06335 0.590549 0.303347 0
M  V30 9 N -3.74077 -0.744925 0.0221913 0
M  V30 10 C -2.48973 -1.31483 -0.311209 0
M  V30 11 N -1.32986 -0.67103 -0.427936 0
M  V30 12 C -0.151243 -1.18268 -0.737934 0
M  V30 13 C 1.11303 -0.414038 -0.854345 0
M  V30 14 S 1.90568 -0.402403 0.77232 0
M  V30 15 C 3.4331 0.533853 0.610336 0
M  V30 16 N 3.61167 1.85247 0.776573 0
M  V30 17 N 4.88259 2.16397 0.569862 0
M  V30 18 C 5.57359 1.04187 0.259702 0
M  V30 19 N 4.66661 0.0478151 0.288978 0
M  V30 20 N 4.93709 -1.28258 0.0309463 0
M  V30 21 C 6.99776 0.973369 -0.0359652 0
M  V30 22 C 7.87703 2.03301 -0.0498005 0
M  V30 23 C 9.13095 1.53353 -0.377351 0
M  V30 24 C 8.93068 0.168825 -0.546195 0
M  V30 25 O 7.65257 -0.116122 -0.333842 0
M  V30 26 N -0.0937576 -2.51445 -0.967548 0
M  V30 27 C -1.25142 -3.23133 -0.863249 0
M  V30 28 N -2.41235 -2.66726 -0.548026 0
M  V30 29 N -1.21624 -4.64875 -1.10263 0
M  V30 30 H -6.059 -0.18485 -1.48343 0
M  V30 31 H -6.96841 -1.64404 -0.847447 0
M  V30 32 H -7.77994 0.00642146 -1.0509 0
M  V30 33 H -7.363 0.203761 1.21238 0
M  V30 34 H -6.09623 -1.06998 1.17027 0
M  V30 35 H -6.79111 2.38729 1.12288 0
M  V30 36 H -5.12302 4.23634 1.10371 0
M  V30 37 H -2.7738 3.72132 0.566787 0
M  V30 38 H -2.1453 1.4701 0.0775263 0
M  V30 39 H -4.53679 -1.45564 0.057626 0
M  V30 40 H 1.77439 -0.841031 -1.63712 0
M  V30 41 H 0.860495 0.619822 -1.19942 0
M  V30 42 H 4.80272 -1.70492 -0.904911 0
M  V30 43 H 5.28755 -1.88849 0.794275 0
M  V30 44 H 7.7055 3.08085 0.144958 0
M  V30 45 H 10.0486 2.08671 -0.476391 0
M  V30 46 H 9.67183 -0.56131 -0.806392 0
M  V30 47 H -0.534134 -5.28622 -0.642457 0
M  V30 48 H -1.90658 -5.0486 -1.76698 0
M  V30 END ATOM
M  V30 BEGIN BOND
M  V30 1 1 1 2
M  V30 2 1 2 3
M  V30 3 2 3 4
M  V30 4 1 4 5
M  V30 5 2 5 6
M  V30 6 1 6 7
M  V30 7 2 7 8
M  V30 8 1 8 9
M  V30 9 1 9 10
M  V30 10 2 10 11
M  V30 11 1 11 12
M  V30 12 1 12 13
M  V30 13 1 13 14
M  V30 14 1 14 15
M  V30 15 2 15 16
M  V30 16 1 16 17
M  V30 17 2 17 18
M  V30 18 1 18 19
M  V30 19 1 19 20
M  V30 20 1 18 21
M  V30 21 2 21 22
M  V30 22 1 22 23
M  V30 23 2 23 24
M  V30 24 1 24 25
M  V30 25 2 12 26
M  V30 26 1 26 27
M  V30 27 2 27 28
M  V30 28 1 27 29
M  V30 29 1 8 3
M  V30 30 1 28 10
M  V30 31 1 19 15
M  V30 32 1 25 21
M  V30 33 1 1 30
M  V30 34 1 1 31
M  V30 35 1 1 32
M  V30 36 1 2 33
M  V30 37 1 2 34
M  V30 38 1 4 35
M  V30 39 1 5 36
M  V30 40 1 6 37
M  V30 41 1 7 38
M  V30 42 1 9 39
M  V30 43 1 13 40
M  V30 44 1 13 41
M  V30 45 1 20 42
M  V30 46 1 20 43
M  V30 47 1 22 44
M  V30 48 1 23 45
M  V30 49 1 24 46
M  V30 50 1 29 47
M  V30 51 1 29 48
M  V30 END BOND
M  V30 END CTAB
M  END
