
     RDKit          3D

  0  0  0  0  0  0  0  0  0  0999 V3000
M  V30 BEGIN CTAB
M  V30 COUNTS 42 45 0 0 0
M  V30 BEGIN ATOM
M  V30 1 N 6.51723 1.34226 -0.0456027 0
M  V30 2 C 5.24596 0.721822 -0.149682 0
M  V30 3 N 5.02574 -0.36379 -0.913037 0
M  V30 4 C 3.82476 -0.954596 -1.01493 0
M  V30 5 N 3.56048 -2.08341 -1.79843 0
M  V30 6 C 2.75759 -0.419719 -0.297875 0
M  V30 7 C 1.51801 -0.996996 -0.378313 0
M  V30 8 C 0.487773 -0.438302 0.346156 0
M  V30 9 C 0.732465 0.681393 1.12852 0
M  V30 10 C 1.97995 1.25834 1.20635 0
M  V30 11 C 3.00892 0.690412 0.475141 0
M  V30 12 N 4.24737 1.25987 0.549901 0
M  V30 13 N -0.827831 -0.955511 0.337925 0
M  V30 14 C -1.20968 -2.16 -0.374041 0
M  V30 15 C -2.64897 -2.42806 0.0124531 0
M  V30 16 C -2.96801 -1.53702 1.16831 0
M  V30 17 C -1.95874 -0.406051 0.998717 0
M  V30 18 C -2.63107 0.697434 0.321308 0
M  V30 19 C -3.04067 1.80355 1.03019 0
M  V30 20 C -3.68234 2.87421 0.423086 0
M  V30 21 C -3.92745 2.84905 -0.935001 0
M  V30 22 C -3.52111 1.7446 -1.65687 0
M  V30 23 C -2.87477 0.671205 -1.03228 0
M  V30 24 H 6.66544 2.2353 -0.56133 0
M  V30 25 H 7.3225 0.97953 0.506391 0
M  V30 26 H 3.27654 -2.97707 -1.35895 0
M  V30 27 H 3.65015 -2.02315 -2.82834 0
M  V30 28 H 1.31531 -1.85802 -0.975643 0
M  V30 29 H -0.0545714 1.15156 1.71747 0
M  V30 30 H 2.13292 2.12922 1.8256 0
M  V30 31 H -1.06398 -2.08075 -1.46677 0
M  V30 32 H -0.621895 -3.04311 -0.047562 0
M  V30 33 H -2.78594 -3.48701 0.38307 0
M  V30 34 H -3.35087 -2.33292 -0.843497 0
M  V30 35 H -3.99449 -1.14602 1.02058 0
M  V30 36 H -2.84646 -2.03588 2.15196 0
M  V30 37 H -1.73448 -0.0844452 2.05331 0
M  V30 38 H -2.84905 1.82946 2.10809 0
M  V30 39 H -4.01022 3.75013 0.965849 0
M  V30 40 H -4.41983 3.65288 -1.44677 0
M  V30 41 H -3.69774 1.68941 -2.73166 0
M  V30 42 H -2.54894 -0.199836 -1.57735 0
M  V30 END ATOM
M  V30 BEGIN BOND
M  V30 1 1 1 2
M  V30 2 2 2 3
M  V30 3 1 3 4
M  V30 4 1 4 5
M  V30 5 2 4 6
M  V30 6 1 6 7
M  V30 7 2 7 8
M  V30 8 1 8 9
M  V30 9 2 9 10
M  V30 10 1 10 11
M  V30 11 2 11 12
M  V30 12 1 8 13
M  V30 13 1 13 14
M  V30 14 1 14 15
M  V30 15 1 15 16
M  V30 16 1 16 17
M  V30 17 1 17 18
M  V30 18 2 18 19
M  V30 19 1 19 20
M  V30 20 2 20 21
M  V30 21 1 21 22
M  V30 22 2 22 23
M  V30 23 1 12 2
M  V30 24 1 17 13
M  V30 25 1 23 18
M  V30 26 1 11 6
M  V30 27 1 1 24
M  V30 28 1 1 25
M  V30 29 1 5 26
M  V30 30 1 5 27
M  V30 31 1 7 28
M  V30 32 1 9 29
M  V30 33 1 10 30
M  V30 34 1 14 31
M  V30 35 1 14 32
M  V30 36 1 15 33
M  V30 37 1 15 34
M  V30 38 1 16 35
M  V30 39 1 16 36
M  V30 40 1 17 37
M  V30 41 1 19 38
M  V30 42 1 20 39
M  V30 43 1 21 40
M  V30 44 1 22 41
M  V30 45 1 23 42
M  V30 END BOND
M  V30 END CTAB
M  END
