
     RDKit          3D

  0  0  0  0  0  0  0  0  0  0999 V3000
M  V30 BEGIN CTAB
M  V30 COUNTS 36 37 0 0 0
M  V30 BEGIN ATOM
M  V30 1 N 6.08049 0.0546253 -0.678013 0
M  V30 2 C 6.07549 -0.389338 0.671179 0
M  V30 3 N 5.03727 -0.318539 1.41656 0
M  V30 4 N 3.81706 0.184219 1.02198 0
M  V30 5 C 2.83053 -0.523387 0.590539 0
M  V30 6 C 1.56091 0.0664548 0.186705 0
M  V30 7 C 0.548011 -0.723858 -0.262703 0
M  V30 8 C -0.651186 -0.157064 -0.643144 0
M  V30 9 C -0.888539 1.19708 -0.592885 0
M  V30 10 C 0.168493 1.98203 -0.12803 0
M  V30 11 C 1.36981 1.4219 0.25375 0
M  V30 12 O -2.03322 1.83247 -0.945492 0
M  V30 13 C -3.23251 1.3603 -1.42266 0
M  V30 14 C -3.97183 0.430329 -0.534875 0
M  V30 15 C -3.69032 0.348098 0.80392 0
M  V30 16 C -4.38642 -0.520836 1.609 0
M  V30 17 C -5.38861 -1.34554 1.13198 0
M  V30 18 C -5.63971 -1.23035 -0.222633 0
M  V30 19 C -4.95778 -0.370488 -1.04447 0
M  V30 20 Br -6.35025 -2.5493 2.25706 0
M  V30 21 N 7.25879 -0.940373 1.24609 0
M  V30 22 H 6.37845 -0.61849 -1.43208 0
M  V30 23 H 5.79437 1.02516 -0.905537 0
M  V30 24 H 2.97597 -1.59329 0.535657 0
M  V30 25 H 0.701153 -1.78686 -0.31409 0
M  V30 26 H -1.41401 -0.803632 -0.9918 0
M  V30 27 H 0.0502449 3.05448 -0.062966 0
M  V30 28 H 2.20463 2.01521 0.618196 0
M  V30 29 H -3.06325 0.816673 -2.39369 0
M  V30 30 H -3.87848 2.22508 -1.69259 0
M  V30 31 H -2.8993 0.985097 1.23786 0
M  V30 32 H -4.15548 -0.576467 2.66176 0
M  V30 33 H -6.43449 -1.88151 -0.611844 0
M  V30 34 H -5.20822 -0.335061 -2.09053 0
M  V30 35 H 8.04165 -0.358585 1.59445 0
M  V30 36 H 7.35029 -1.97625 1.32413 0
M  V30 END ATOM
M  V30 BEGIN BOND
M  V30 1 1 1 2
M  V30 2 2 2 3
M  V30 3 1 3 4
M  V30 4 2 4 5
M  V30 5 1 5 6
M  V30 6 2 6 7
M  V30 7 1 7 8
M  V30 8 2 8 9
M  V30 9 1 9 10
M  V30 10 2 10 11
M  V30 11 1 9 12
M  V30 12 1 12 13
M  V30 13 1 13 14
M  V30 14 2 14 15
M  V30 15 1 15 16
M  V30 16 2 16 17
M  V30 17 1 17 18
M  V30 18 2 18 19
M  V30 19 1 17 20
M  V30 20 1 2 21
M  V30 21 1 11 6
M  V30 22 1 19 14
M  V30 23 1 1 22
M  V30 24 1 1 23
M  V30 25 1 5 24
M  V30 26 1 7 25
M  V30 27 1 8 26
M  V30 28 1 10 27
M  V30 29 1 11 28
M  V30 30 1 13 29
M  V30 31 1 13 30
M  V30 32 1 15 31
M  V30 33 1 16 32
M  V30 34 1 18 33
M  V30 35 1 19 34
M  V30 36 1 21 35
M  V30 37 1 21 36
M  V30 END BOND
M  V30 END CTAB
M  END
