
     RDKit          3D

  0  0  0  0  0  0  0  0  0  0999 V3000
M  V30 BEGIN CTAB
M  V30 COUNTS 31 32 0 0 0
M  V30 BEGIN ATOM
M  V30 1 N -0.126676 -0.557267 -1.89576 0
M  V30 2 C 0.189587 -0.592227 -0.547175 0
M  V30 3 C 1.43601 0.00717108 -0.0703668 0
M  V30 4 C 2.10769 -0.607745 1.02611 0
M  V30 5 C 3.37023 -0.222397 1.40495 0
M  V30 6 C 3.99746 0.78572 0.704132 0
M  V30 7 N 3.35481 1.37471 -0.338342 0
M  V30 8 C 2.11774 1.00025 -0.7137 0
M  V30 9 N 1.51615 1.79149 -1.7371 0
M  V30 10 C -0.939229 -0.548019 0.491507 0
M  V30 11 C -1.72247 0.708276 0.188856 0
M  V30 12 C -2.81156 1.42667 0.773251 0
M  V30 13 C -3.23764 0.270816 -0.00818012 0
M  V30 14 C -1.75874 -1.77979 0.313895 0
M  V30 15 H 0.704867 -0.966513 -2.44791 0
M  V30 16 H -0.874153 -1.27749 -2.13425 0
M  V30 17 H 0.472631 -1.80429 -0.4476 0
M  V30 18 H 1.59221 -1.40132 1.56662 0
M  V30 19 H 3.86982 -0.737622 2.25749 0
M  V30 20 H 4.9915 1.08165 1.01868 0
M  V30 21 H 1.52575 1.61562 -2.72591 0
M  V30 22 H 1.02405 2.65596 -1.32732 0
M  V30 23 H -0.479815 -0.535902 1.48575 0
M  V30 24 H -1.32115 1.15582 -0.84852 0
M  V30 25 H -3.04983 1.49591 1.85153 0
M  V30 26 H -3.02629 2.45557 0.301179 0
M  V30 27 H -3.57326 -0.603244 0.607861 0
M  V30 28 H -3.518 0.210817 -1.04967 0
M  V30 29 H -1.11183 -2.69282 0.131204 0
M  V30 30 H -2.39377 -1.65006 -0.612001 0
M  V30 31 H -2.32606 -2.05975 1.21824 0
M  V30 END ATOM
M  V30 BEGIN BOND
M  V30 1 1 1 2
M  V30 2 1 2 3
M  V30 3 2 3 4
M  V30 4 1 4 5
M  V30 5 2 5 6
M  V30 6 1 6 7
M  V30 7 2 7 8
M  V30 8 1 8 9
M  V30 9 1 2 10
M  V30 10 1 10 11
M  V30 11 1 11 12
M  V30 12 1 12 13
M  V30 13 1 10 14
M  V30 14 1 8 3
M  V30 15 1 13 11
M  V30 16 1 1 15
M  V30 17 1 1 16
M  V30 18 1 2 17
M  V30 19 1 4 18
M  V30 20 1 5 19
M  V30 21 1 6 20
M  V30 22 1 9 21
M  V30 23 1 9 22
M  V30 24 1 10 23
M  V30 25 1 11 24
M  V30 26 1 12 25
M  V30 27 1 12 26
M  V30 28 1 13 27
M  V30 29 1 13 28
M  V30 30 1 14 29
M  V30 31 1 14 30
M  V30 32 1 14 31
M  V30 END BOND
M  V30 END CTAB
M  END
