
     RDKit          3D

  0  0  0  0  0  0  0  0  0  0999 V3000
M  V30 BEGIN CTAB
M  V30 COUNTS 50 52 0 0 0
M  V30 BEGIN ATOM
M  V30 1 C -5.74771 -0.83754 2.82768 0
M  V30 2 C -4.53182 -0.270807 2.12015 0
M  V30 3 C -4.71841 -0.353689 0.636192 0
M  V30 4 O -3.63233 0.143182 -0.0396145 0
M  V30 5 C -2.33032 -0.279283 -0.118867 0
M  V30 6 C -1.8304 -1.41125 0.487824 0
M  V30 7 C -0.495914 -1.78114 0.371679 0
M  V30 8 C 0.391786 -1.03528 -0.356203 0
M  V30 9 C -0.0977783 0.0981024 -0.968025 0
M  V30 10 C -1.40366 0.471463 -0.861187 0
M  V30 11 O -1.86745 1.60288 -1.47869 0
M  V30 12 C -1.05453 2.46072 -2.26059 0
M  V30 13 C -1.81333 3.61935 -2.81647 0
M  V30 14 C 1.82117 -1.43818 -0.476376 0
M  V30 15 C 2.32697 -1.27515 -1.83921 0
M  V30 16 C 3.44117 -0.634815 -2.08435 0
M  V30 17 N 3.82882 -0.545532 -3.48252 0
M  V30 18 O 4.2445 -0.0569763 -1.11485 0
M  V30 19 C 3.82445 -0.173577 0.213255 0
M  V30 20 C 2.67086 -0.830713 0.528831 0
M  V30 21 C 2.35351 -0.88316 1.89145 0
M  V30 22 C 3.13329 -0.31956 2.86314 0
M  V30 23 C 4.29756 0.342755 2.53407 0
M  V30 24 C 4.63324 0.410212 1.21308 0
M  V30 25 N 5.12712 0.936837 3.51277 0
M  V30 26 C 1.56823 -1.84312 -2.96552 0
M  V30 27 N 0.956627 -2.2972 -3.83702 0
M  V30 28 H -5.73082 -0.487842 3.86388 0
M  V30 29 H -6.64169 -0.488566 2.27319 0
M  V30 30 H -5.65943 -1.94128 2.77522 0
M  V30 31 H -3.64212 -0.77817 2.48181 0
M  V30 32 H -4.41598 0.818499 2.39198 0
M  V30 33 H -4.9793 -1.40725 0.319935 0
M  V30 34 H -5.66583 0.219274 0.399752 0
M  V30 35 H -2.49498 -2.05411 1.05651 0
M  V30 36 H -0.134344 -2.68981 0.870488 0
M  V30 37 H 0.639406 0.675778 -1.54568 0
M  V30 38 H -0.67493 1.85459 -3.11224 0
M  V30 39 H -0.164703 2.79608 -1.67462 0
M  V30 40 H -1.07276 4.37397 -3.17402 0
M  V30 41 H -2.52002 4.07434 -2.09344 0
M  V30 42 H -2.3407 3.27039 -3.73995 0
M  V30 43 H 1.82439 -2.54458 -0.276173 0
M  V30 44 H 3.45614 0.286779 -3.98512 0
M  V30 45 H 4.42298 -1.24602 -3.94129 0
M  V30 46 H 1.43743 -1.40462 2.16024 0
M  V30 47 H 2.8462 -0.386359 3.90292 0
M  V30 48 H 5.53017 0.913098 0.886905 0
M  V30 49 H 5.0283 0.704655 4.51716 0
M  V30 50 H 5.85693 1.62263 3.24076 0
M  V30 END ATOM
M  V30 BEGIN BOND
M  V30 1 1 1 2
M  V30 2 1 2 3
M  V30 3 1 3 4
M  V30 4 1 4 5
M  V30 5 2 5 6
M  V30 6 1 6 7
M  V30 7 2 7 8
M  V30 8 1 8 9
M  V30 9 2 9 10
M  V30 10 1 10 11
M  V30 11 1 11 12
M  V30 12 1 12 13
M  V30 13 1 8 14
M  V30 14 1 14 15
M  V30 15 2 15 16
M  V30 16 1 16 17
M  V30 17 1 16 18
M  V30 18 1 18 19
M  V30 19 2 19 20
M  V30 20 1 20 21
M  V30 21 2 21 22
M  V30 22 1 22 23
M  V30 23 2 23 24
M  V30 24 1 23 25
M  V30 25 1 15 26
M  V30 26 3 26 27
M  V30 27 1 10 5
M  V30 28 1 20 14
M  V30 29 1 24 19
M  V30 30 1 1 28
M  V30 31 1 1 29
M  V30 32 1 1 30
M  V30 33 1 2 31
M  V30 34 1 2 32
M  V30 35 1 3 33
M  V30 36 1 3 34
M  V30 37 1 6 35
M  V30 38 1 7 36
M  V30 39 1 9 37
M  V30 40 1 12 38
M  V30 41 1 12 39
M  V30 42 1 13 40
M  V30 43 1 13 41
M  V30 44 1 13 42
M  V30 45 1 14 43
M  V30 46 1 17 44
M  V30 47 1 17 45
M  V30 48 1 21 46
M  V30 49 1 22 47
M  V30 50 1 24 48
M  V30 51 1 25 49
M  V30 52 1 25 50
M  V30 END BOND
M  V30 END CTAB
M  END
