
     RDKit          3D

  0  0  0  0  0  0  0  0  0  0999 V3000
M  V30 BEGIN CTAB
M  V30 COUNTS 49 51 0 0 0
M  V30 BEGIN ATOM
M  V30 1 C -4.51507 1.57081 -0.486773 0
M  V30 2 C -4.35414 0.407699 0.502896 0
M  V30 3 C -3.64047 1.01435 1.70255 0
M  V30 4 N -5.6518 -0.0329678 0.867826 0
M  V30 5 C -6.10687 -1.21634 0.703661 0
M  V30 6 N -7.43042 -1.56943 1.10324 0
M  V30 7 N -5.3188 -2.25667 0.110626 0
M  V30 8 C -4.12238 -1.93884 -0.250967 0
M  V30 9 N -3.25606 -2.92826 -0.859095 0
M  V30 10 N -3.58151 -0.645682 -0.0880442 0
M  V30 11 C -2.23618 -0.373602 -0.518913 0
M  V30 12 C -1.17326 -0.547237 0.34938 0
M  V30 13 C 0.132278 -0.304868 -0.00139007 0
M  V30 14 O 1.19074 -0.486576 0.890631 0
M  V30 15 C 2.50256 -0.24652 0.549115 0
M  V30 16 C 3.21703 -1.30266 0.0185172 0
M  V30 17 C 4.51657 -1.09979 -0.330183 0
M  V30 18 C 5.143 0.142478 -0.166049 0
M  V30 19 N 6.49613 0.268528 -0.534861 0
M  V30 20 C 7.21149 1.46701 -0.691933 0
M  V30 21 O 6.74077 2.60466 -0.528869 0
M  V30 22 C 8.66863 1.41491 -1.08916 0
M  V30 23 Br 9.38583 3.19051 -1.22877 0
M  V30 24 C 4.39525 1.15741 0.363463 0
M  V30 25 C 3.06213 0.991812 0.733236 0
M  V30 26 C 0.381518 0.132575 -1.2851 0
M  V30 27 C -0.678685 0.315116 -2.18025 0
M  V30 28 C -1.98765 0.0662245 -1.81025 0
M  V30 29 H -3.55597 2.07052 -0.679472 0
M  V30 30 H -4.93515 1.10132 -1.40984 0
M  V30 31 H -5.27002 2.24763 -0.0821904 0
M  V30 32 H -3.18569 0.271429 2.35578 0
M  V30 33 H -4.43014 1.60363 2.24917 0
M  V30 34 H -2.8878 1.72818 1.31598 0
M  V30 35 H -7.61675 -2.51566 1.45671 0
M  V30 36 H -8.16987 -0.86487 1.0275 0
M  V30 37 H -2.85453 -3.7078 -0.278901 0
M  V30 38 H -3.00605 -2.9084 -1.85491 0
M  V30 39 H -1.32754 -0.894671 1.38242 0
M  V30 40 H 2.77211 -2.29067 -0.12868 0
M  V30 41 H 5.12698 -1.89587 -0.75416 0
M  V30 42 H 7.03856 -0.636731 -0.709455 0
M  V30 43 H 9.22983 0.803228 -0.358292 0
M  V30 44 H 8.68369 0.962873 -2.10843 0
M  V30 45 H 4.78607 2.14805 0.539662 0
M  V30 46 H 2.474 1.78238 1.1471 0
M  V30 47 H 1.41413 0.335144 -1.59633 0
M  V30 48 H -0.465133 0.658382 -3.18203 0
M  V30 49 H -2.81135 0.207286 -2.50335 0
M  V30 END ATOM
M  V30 BEGIN BOND
M  V30 1 1 1 2
M  V30 2 1 2 3
M  V30 3 1 2 4
M  V30 4 2 4 5
M  V30 5 1 5 6
M  V30 6 1 5 7
M  V30 7 2 7 8
M  V30 8 1 8 9
M  V30 9 1 8 10
M  V30 10 1 10 11
M  V30 11 2 11 12
M  V30 12 1 12 13
M  V30 13 1 13 14
M  V30 14 1 14 15
M  V30 15 2 15 16
M  V30 16 1 16 17
M  V30 17 2 17 18
M  V30 18 1 18 19
M  V30 19 1 19 20
M  V30 20 2 20 21
M  V30 21 1 20 22
M  V30 22 1 22 23
M  V30 23 1 18 24
M  V30 24 2 24 25
M  V30 25 2 13 26
M  V30 26 1 26 27
M  V30 27 2 27 28
M  V30 28 1 10 2
M  V30 29 1 28 11
M  V30 30 1 25 15
M  V30 31 1 1 29
M  V30 32 1 1 30
M  V30 33 1 1 31
M  V30 34 1 3 32
M  V30 35 1 3 33
M  V30 36 1 3 34
M  V30 37 1 6 35
M  V30 38 1 6 36
M  V30 39 1 9 37
M  V30 40 1 9 38
M  V30 41 1 12 39
M  V30 42 1 16 40
M  V30 43 1 17 41
M  V30 44 1 19 42
M  V30 45 1 22 43
M  V30 46 1 22 44
M  V30 47 1 24 45
M  V30 48 1 25 46
M  V30 49 1 26 47
M  V30 50 1 27 48
M  V30 51 1 28 49
M  V30 END BOND
M  V30 END CTAB
M  END
