
     RDKit          3D

  0  0  0  0  0  0  0  0  0  0999 V3000
M  V30 BEGIN CTAB
M  V30 COUNTS 32 33 0 0 0
M  V30 BEGIN ATOM
M  V30 1 C -6.27126 0.419014 -0.57871 0
M  V30 2 O -4.97467 -0.100185 -0.432285 0
M  V30 3 C -4.07626 0.543213 0.379143 0
M  V30 4 O -4.45493 1.58823 0.968481 0
M  V30 5 C -2.70278 0.0578291 0.579948 0
M  V30 6 C -2.22095 -1.07063 -0.013124 0
M  V30 7 C -0.906327 -1.48181 0.214871 0
M  V30 8 N -0.436249 -2.66178 -0.417243 0
M  V30 9 C -0.0461261 -0.763684 1.04737 0
M  V30 10 C -0.524719 0.369445 1.64613 0
M  V30 11 C -1.85034 0.757301 1.39748 0
M  V30 12 Cl 0.451992 1.35406 2.75183 0
M  V30 13 S 1.59641 -1.32773 1.35096 0
M  V30 14 C 2.80839 -0.817446 0.165934 0
M  V30 15 N 3.0443 -1.55894 -0.966287 0
M  V30 16 N 4.00177 -0.958671 -1.63182 0
M  V30 17 C 4.40865 0.143424 -0.992162 0
M  V30 18 N 3.65535 0.220959 0.129306 0
M  V30 19 N 3.76551 1.22166 1.08962 0
M  V30 20 C 5.45106 1.11568 -1.35102 0
M  V30 21 H -6.29634 1.54223 -0.522441 0
M  V30 22 H -6.67786 0.184408 -1.57456 0
M  V30 23 H -6.96509 0.0829785 0.236749 0
M  V30 24 H -2.84918 -1.65122 -0.658438 0
M  V30 25 H 0.210657 -2.61749 -1.21818 0
M  V30 26 H -0.737051 -3.60021 -0.0806691 0
M  V30 27 H -2.18003 1.67252 1.90624 0
M  V30 28 H 3.56809 2.20173 0.809948 0
M  V30 29 H 4.03458 1.01391 2.0618 0
M  V30 30 H 5.04117 2.12864 -1.20639 0
M  V30 31 H 6.35571 1.03221 -0.713858 0
M  V30 32 H 5.77652 0.960351 -2.41883 0
M  V30 END ATOM
M  V30 BEGIN BOND
M  V30 1 1 1 2
M  V30 2 1 2 3
M  V30 3 2 3 4
M  V30 4 1 3 5
M  V30 5 2 5 6
M  V30 6 1 6 7
M  V30 7 1 7 8
M  V30 8 2 7 9
M  V30 9 1 9 10
M  V30 10 2 10 11
M  V30 11 1 10 12
M  V30 12 1 9 13
M  V30 13 1 13 14
M  V30 14 2 14 15
M  V30 15 1 15 16
M  V30 16 2 16 17
M  V30 17 1 17 18
M  V30 18 1 18 19
M  V30 19 1 17 20
M  V30 20 1 11 5
M  V30 21 1 18 14
M  V30 22 1 1 21
M  V30 23 1 1 22
M  V30 24 1 1 23
M  V30 25 1 6 24
M  V30 26 1 8 25
M  V30 27 1 8 26
M  V30 28 1 11 27
M  V30 29 1 19 28
M  V30 30 1 19 29
M  V30 31 1 20 30
M  V30 32 1 20 31
M  V30 33 1 20 32
M  V30 END BOND
M  V30 END CTAB
M  END
