
     RDKit          3D

  0  0  0  0  0  0  0  0  0  0999 V3000
M  V30 BEGIN CTAB
M  V30 COUNTS 66 70 0 0 0
M  V30 BEGIN ATOM
M  V30 1 O 9.04125 1.35323 -0.478361 0
M  V30 2 C 9.78785 0.227841 -0.320854 0
M  V30 3 O 10.9191 0.285133 0.218547 0
M  V30 4 C 9.28495 -1.07865 -0.783803 0
M  V30 5 O 7.98459 -0.97662 -1.23052 0
M  V30 6 C 6.85543 -0.646819 -0.509307 0
M  V30 7 C 6.95372 -0.396627 0.837428 0
M  V30 8 C 5.82301 -0.0675833 1.53819 0
M  V30 9 C 4.56453 0.0226221 0.927211 0
M  V30 10 C 4.43501 -0.2248 -0.418862 0
M  V30 11 C 5.61713 -0.554679 -1.08728 0
M  V30 12 C 3.21622 -0.241731 -1.17964 0
M  V30 13 O 3.3566 -0.201814 -2.47651 0
M  V30 14 N 1.86741 -0.296448 -0.779069 0
M  V30 15 C 0.83333 -0.210307 -1.82049 0
M  V30 16 C -0.412655 -0.905529 -1.4936 0
M  V30 17 C -0.897887 -0.566459 -0.0673924 0
M  V30 18 C 0.156874 -1.1608 0.812616 0
M  V30 19 C 1.48148 -0.479519 0.573198 0
M  V30 20 O -2.12916 -1.16477 0.0640628 0
M  V30 21 C -2.80869 -0.744634 1.21783 0
M  V30 22 C -3.20577 0.701397 1.14501 0 CFG=1
M  V30 23 C -2.38507 1.46436 0.130415 0 CFG=1
M  V30 24 C -0.992567 0.909097 0.137036 0
M  V30 25 C -3.01642 1.49399 -1.23474 0
M  V30 26 O -2.29085 2.79096 0.579461 0
M  V30 27 N -4.6128 0.9271 1.00702 0
M  V30 28 C -5.27448 1.98353 1.54986 0
M  V30 29 N -6.58392 1.92889 1.25127 0
M  V30 30 C -6.78455 0.833748 0.510032 0
M  V30 31 C -5.56409 0.22186 0.36416 0
M  V30 32 N -5.45009 -0.899751 -0.331032 0
M  V30 33 C -6.54913 -1.43162 -0.893001 0
M  V30 34 N -6.52173 -2.63788 -1.65981 0
M  V30 35 N -7.76557 -0.847626 -0.764147 0
M  V30 36 C -7.9051 0.287994 -0.0651487 0
M  V30 37 N -9.18884 0.92662 0.085118 0
M  V30 38 H 8.90494 1.89946 -1.28 0
M  V30 39 H 9.90011 -1.46085 -1.64439 0
M  V30 40 H 9.40506 -1.86902 0.00624987 0
M  V30 41 H 7.87503 -0.450947 1.39522 0
M  V30 42 H 5.87695 0.134651 2.603 0
M  V30 43 H 3.73886 0.322405 1.5242 0
M  V30 44 H 5.56745 -0.758814 -2.1491 0
M  V30 45 H 0.716195 0.843454 -2.15576 0
M  V30 46 H 1.28163 -0.724851 -2.72371 0
M  V30 47 H -1.17959 -0.739643 -2.24515 0
M  V30 48 H -0.195347 -2.01331 -1.44832 0
M  V30 49 H 0.214881 -2.25496 0.63264 0
M  V30 50 H -0.0512487 -1.04992 1.8964 0
M  V30 51 H 1.45485 0.479317 1.14419 0
M  V30 52 H 2.21599 -1.18229 1.11307 0
M  V30 53 H -2.07499 -0.944042 2.0568 0
M  V30 54 H -3.63832 -1.4389 1.42484 0
M  V30 55 H -2.90517 1.14001 2.14563 0
M  V30 56 H -0.582288 1.11599 1.16975 0
M  V30 57 H -0.335209 1.49979 -0.538962 0
M  V30 58 H -2.34882 2.09952 -1.88286 0
M  V30 59 H -3.96355 2.07425 -1.15524 0
M  V30 60 H -3.13991 0.524111 -1.71 0
M  V30 61 H -1.44621 3.20798 0.22698 0
M  V30 62 H -4.78766 2.7668 2.14912 0
M  V30 63 H -6.94851 -2.7041 -2.61056 0
M  V30 64 H -6.05751 -3.47679 -1.2487 0
M  V30 65 H -9.49054 1.28034 1.01917 0
M  V30 66 H -9.84611 1.05663 -0.707174 0
M  V30 END ATOM
M  V30 BEGIN BOND
M  V30 1 1 1 2
M  V30 2 2 2 3
M  V30 3 1 2 4
M  V30 4 1 4 5
M  V30 5 1 5 6
M  V30 6 2 6 7
M  V30 7 1 7 8
M  V30 8 2 8 9
M  V30 9 1 9 10
M  V30 10 2 10 11
M  V30 11 1 10 12
M  V30 12 2 12 13
M  V30 13 1 12 14
M  V30 14 1 14 15
M  V30 15 1 15 16
M  V30 16 1 16 17
M  V30 17 1 17 18
M  V30 18 1 18 19
M  V30 19 1 17 20
M  V30 20 1 20 21
M  V30 21 1 21 22
M  V30 22 1 22 23
M  V30 23 1 23 24
M  V30 24 1 23 25
M  V30 25 1 23 26 CFG=1
M  V30 26 1 22 27
M  V30 27 1 27 28
M  V30 28 2 28 29
M  V30 29 1 29 30
M  V30 30 2 30 31
M  V30 31 1 31 32
M  V30 32 2 32 33
M  V30 33 1 33 34
M  V30 34 1 33 35
M  V30 35 2 35 36
M  V30 36 1 36 37
M  V30 37 1 11 6
M  V30 38 1 19 14
M  V30 39 1 31 27
M  V30 40 1 24 17
M  V30 41 1 36 30
M  V30 42 1 1 38
M  V30 43 1 4 39
M  V30 44 1 4 40
M  V30 45 1 7 41
M  V30 46 1 8 42
M  V30 47 1 9 43
M  V30 48 1 11 44
M  V30 49 1 15 45
M  V30 50 1 15 46
M  V30 51 1 16 47
M  V30 52 1 16 48
M  V30 53 1 18 49
M  V30 54 1 18 50
M  V30 55 1 19 51
M  V30 56 1 19 52
M  V30 57 1 21 53
M  V30 58 1 21 54
M  V30 59 1 22 55 CFG=1
M  V30 60 1 24 56
M  V30 61 1 24 57
M  V30 62 1 25 58
M  V30 63 1 25 59
M  V30 64 1 25 60
M  V30 65 1 26 61
M  V30 66 1 28 62
M  V30 67 1 34 63
M  V30 68 1 34 64
M  V30 69 1 37 65
M  V30 70 1 37 66
M  V30 END BOND
M  V30 END CTAB
M  END
