
     RDKit          3D

  0  0  0  0  0  0  0  0  0  0999 V3000
M  V30 BEGIN CTAB
M  V30 COUNTS 27 27 0 0 0
M  V30 BEGIN ATOM
M  V30 1 C -0.903451 3.23914 0.523834 0
M  V30 2 O -1.64299 2.06311 0.58759 0
M  V30 3 C -1.02385 0.840153 0.32071 0
M  V30 4 C 0.306679 0.84051 0.00135624 0
M  V30 5 C 0.953432 -0.348313 -0.268836 0
M  V30 6 C 0.202686 -1.53444 -0.203307 0
M  V30 7 C -1.13083 -1.48644 0.12144 0
M  V30 8 C -1.77196 -0.30854 0.389232 0
M  V30 9 O -1.87151 -2.67513 0.184314 0
M  V30 10 C -3.23728 -2.6653 0.51312 0
M  V30 11 C 2.34963 -0.466807 -0.615442 0
M  V30 12 N 3.15088 0.468031 -0.717372 0
M  V30 13 N 3.23356 1.79171 -0.609205 0
M  V30 14 N 2.8754 -1.78887 -0.869492 0
M  V30 15 H -1.56288 4.09852 0.788646 0
M  V30 16 H -0.509582 3.40875 -0.493222 0
M  V30 17 H -0.0195405 3.20606 1.2222 0
M  V30 18 H 0.868175 1.77086 -0.043491 0
M  V30 19 H 0.696465 -2.47436 -0.41272 0
M  V30 20 H -2.84291 -0.270585 0.649983 0
M  V30 21 H -3.5947 -3.70314 0.587065 0
M  V30 22 H -3.83901 -2.05821 -0.214182 0
M  V30 23 H -3.36095 -2.15051 1.50029 0
M  V30 24 H 3.75326 2.25903 0.182494 0
M  V30 25 H 2.79751 2.46876 -1.28867 0
M  V30 26 H 3.05876 -2.16196 -1.81125 0
M  V30 27 H 3.06498 -2.36202 -0.0250818 0
M  V30 END ATOM
M  V30 BEGIN BOND
M  V30 1 1 1 2
M  V30 2 1 2 3
M  V30 3 2 3 4
M  V30 4 1 4 5
M  V30 5 2 5 6
M  V30 6 1 6 7
M  V30 7 2 7 8
M  V30 8 1 7 9
M  V30 9 1 9 10
M  V30 10 1 5 11
M  V30 11 2 11 12 CFG=2
M  V30 12 1 12 13
M  V30 13 1 11 14
M  V30 14 1 8 3
M  V30 15 1 1 15
M  V30 16 1 1 16
M  V30 17 1 1 17
M  V30 18 1 4 18
M  V30 19 1 6 19
M  V30 20 1 8 20
M  V30 21 1 10 21
M  V30 22 1 10 22
M  V30 23 1 10 23
M  V30 24 1 13 24
M  V30 25 1 13 25
M  V30 26 1 14 26
M  V30 27 1 14 27
M  V30 END BOND
M  V30 END CTAB
M  END
