
     RDKit          3D

  0  0  0  0  0  0  0  0  0  0999 V3000
M  V30 BEGIN CTAB
M  V30 COUNTS 22 22 0 0 0
M  V30 BEGIN ATOM
M  V30 1 N 1.85393 -1.45172 0.975588 0
M  V30 2 C 1.53435 -0.194342 0.357835 0
M  V30 3 C 2.52957 0.748394 0.266425 0
M  V30 4 C 2.25448 1.97341 -0.316016 0
M  V30 5 N 1.02574 2.20501 -0.777211 0
M  V30 6 C 0.00154017 1.30814 -0.712873 0
M  V30 7 C 0.273552 0.0862702 -0.131264 0
M  V30 8 C -0.779564 -0.935439 -0.0177521 0
M  V30 9 C -2.16693 -0.420196 -0.307319 0
M  V30 10 N -2.5487 0.644505 0.607555 0
M  V30 11 O -0.447769 -1.97265 -0.914773 0
M  V30 12 H 1.53211 -1.64371 1.94359 0
M  V30 13 H 2.40676 -2.11177 0.388689 0
M  V30 14 H 3.51024 0.528781 0.652852 0
M  V30 15 H 3.04245 2.74489 -0.400005 0
M  V30 16 H -0.953113 1.59528 -1.12411 0
M  V30 17 H -0.781 -1.39704 0.989249 0
M  V30 18 H -2.17622 -0.0256952 -1.34239 0
M  V30 19 H -2.91928 -1.23941 -0.167194 0
M  V30 20 H -3.3588 1.18053 0.228349 0
M  V30 21 H -2.8411 0.285111 1.54396 0
M  V30 22 H -0.992242 -1.90835 -1.74319 0
M  V30 END ATOM
M  V30 BEGIN BOND
M  V30 1 1 1 2
M  V30 2 2 2 3
M  V30 3 1 3 4
M  V30 4 2 4 5
M  V30 5 1 5 6
M  V30 6 2 6 7
M  V30 7 1 7 8
M  V30 8 1 8 9
M  V30 9 1 9 10
M  V30 10 1 8 11
M  V30 11 1 7 2
M  V30 12 1 1 12
M  V30 13 1 1 13
M  V30 14 1 3 14
M  V30 15 1 4 15
M  V30 16 1 6 16
M  V30 17 1 8 17
M  V30 18 1 9 18
M  V30 19 1 9 19
M  V30 20 1 10 20
M  V30 21 1 10 21
M  V30 22 1 11 22
M  V30 END BOND
M  V30 END CTAB
M  END
