
     RDKit          3D

  0  0  0  0  0  0  0  0  0  0999 V3000
M  V30 BEGIN CTAB
M  V30 COUNTS 17 17 0 0 0
M  V30 BEGIN ATOM
M  V30 1 N -2.21748 3.12557 -0.125649 0
M  V30 2 C -1.72047 2.06368 -0.104589 0
M  V30 3 C -1.10703 0.763467 -0.0703233 0
M  V30 4 C -1.87551 -0.388159 -0.138051 0
M  V30 5 C -1.29761 -1.64316 -0.106065 0
M  V30 6 F -2.0307 -2.78396 -0.171037 0
M  V30 7 C 0.0711833 -1.79588 -0.00511722 0
M  V30 8 C 0.846254 -0.668671 0.0628863 0
M  V30 9 C 0.261171 0.601504 0.0304981 0
M  V30 10 N 1.04718 1.7845 0.0998089 0
M  V30 11 N 2.25398 -0.781207 0.167087 0
M  V30 12 H -2.94263 -0.277477 -0.216832 0
M  V30 13 H 0.545345 -2.7712 0.0216094 0
M  V30 14 H 1.61721 2.00721 -0.753172 0
M  V30 15 H 1.05762 2.38785 0.936329 0
M  V30 16 H 2.82337 -0.416074 -0.621943 0
M  V30 17 H 2.66812 -1.208 0.994558 0
M  V30 END ATOM
M  V30 BEGIN BOND
M  V30 1 3 1 2
M  V30 2 1 2 3
M  V30 3 2 3 4
M  V30 4 1 4 5
M  V30 5 1 5 6
M  V30 6 2 5 7
M  V30 7 1 7 8
M  V30 8 2 8 9
M  V30 9 1 9 10
M  V30 10 1 8 11
M  V30 11 1 9 3
M  V30 12 1 4 12
M  V30 13 1 7 13
M  V30 14 1 10 14
M  V30 15 1 10 15
M  V30 16 1 11 16
M  V30 17 1 11 17
M  V30 END BOND
M  V30 END CTAB
M  END
