
     RDKit          3D

  0  0  0  0  0  0  0  0  0  0999 V3000
M  V30 BEGIN CTAB
M  V30 COUNTS 27 28 0 0 0
M  V30 BEGIN ATOM
M  V30 1 C 0.542101 -1.00289 -2.88586 0
M  V30 2 C 0.428108 -0.26512 -1.54705 0
M  V30 3 O 1.29405 -0.798421 -0.589723 0
M  V30 4 C 2.30687 -0.0461026 -0.0106259 0
M  V30 5 N 2.63457 1.23839 -0.23239 0
M  V30 6 O 3.64394 1.52322 0.527468 0
M  V30 7 N 3.9987 0.498645 1.23652 0
M  V30 8 C 3.1799 -0.537527 0.936537 0
M  V30 9 N 3.22727 -1.84789 1.49244 0
M  V30 10 C -1.02223 -0.340412 -1.14733 0
M  V30 11 O -1.28707 0.364058 0.0505757 0
M  V30 12 C -2.59868 0.353473 0.502183 0
M  V30 13 N -3.69007 -0.229966 -0.022049 0
M  V30 14 O -4.73332 0.019373 0.740886 0
M  V30 15 N -4.34857 0.753463 1.75332 0
M  V30 16 C -3.02684 0.986012 1.64574 0
M  V30 17 N -2.27765 1.75035 2.57543 0
M  V30 18 H 1.41884 -0.704047 -3.45631 0
M  V30 19 H -0.367219 -0.830041 -3.49907 0
M  V30 20 H 0.527989 -2.08553 -2.62173 0
M  V30 21 H 0.67195 0.793066 -1.75225 0
M  V30 22 H 3.62238 -1.9323 2.45694 0
M  V30 23 H 2.8986 -2.69162 0.999636 0
M  V30 24 H -1.60953 0.154146 -1.94905 0
M  V30 25 H -1.38821 -1.37382 -1.0329 0
M  V30 26 H -1.33119 1.4516 2.91413 0
M  V30 27 H -2.71471 2.6379 2.91452 0
M  V30 END ATOM
M  V30 BEGIN BOND
M  V30 1 1 1 2
M  V30 2 1 2 3
M  V30 3 1 3 4
M  V30 4 2 4 5
M  V30 5 1 5 6
M  V30 6 1 6 7
M  V30 7 2 7 8
M  V30 8 1 8 9
M  V30 9 1 2 10
M  V30 10 1 10 11
M  V30 11 1 11 12
M  V30 12 2 12 13
M  V30 13 1 13 14
M  V30 14 1 14 15
M  V30 15 2 15 16
M  V30 16 1 16 17
M  V30 17 1 8 4
M  V30 18 1 16 12
M  V30 19 1 1 18
M  V30 20 1 1 19
M  V30 21 1 1 20
M  V30 22 1 2 21
M  V30 23 1 9 22
M  V30 24 1 9 23
M  V30 25 1 10 24
M  V30 26 1 10 25
M  V30 27 1 17 26
M  V30 28 1 17 27
M  V30 END BOND
M  V30 END CTAB
M  END
