
     RDKit          3D

  0  0  0  0  0  0  0  0  0  0999 V3000
M  V30 BEGIN CTAB
M  V30 COUNTS 31 31 0 0 0
M  V30 BEGIN ATOM
M  V30 1 N -3.16124 -0.120312 0.970133 0
M  V30 2 C -1.76666 0.323993 0.919608 0
M  V30 3 C -1.2241 -0.111763 -0.425444 0
M  V30 4 C 0.187059 0.269961 -0.64337 0
M  V30 5 C 1.23184 -0.210392 0.228905 0
M  V30 6 C 1.13738 -1.22945 1.12337 0
M  V30 7 N 2.16743 -1.65725 1.91057 0
M  V30 8 C 3.33536 -1.02556 1.78217 0
M  V30 9 C 3.53481 0.0160278 0.907332 0
M  V30 10 C 2.48662 0.428147 0.12694 0
M  V30 11 N 2.67754 1.51418 -0.77915 0
M  V30 12 O 0.321046 1.6651 -0.847475 0
M  V30 13 C -2.10453 0.591675 -1.48817 0
M  V30 14 C -1.50801 -1.57665 -0.605781 0
M  V30 15 H -3.53959 -0.0824032 1.94343 0
M  V30 16 H -3.71099 0.513163 0.354404 0
M  V30 17 H -1.23726 -0.0550083 1.77973 0
M  V30 18 H -1.72279 1.44833 1.00408 0
M  V30 19 H 0.44452 -0.138292 -1.68564 0
M  V30 20 H 0.229157 -1.80613 1.29682 0
M  V30 21 H 4.1782 -1.34796 2.40304 0
M  V30 22 H 4.48162 0.52961 0.803023 0
M  V30 23 H 2.62075 2.48276 -0.438283 0
M  V30 24 H 2.87686 1.33659 -1.7858 0
M  V30 25 H -0.21422 1.94509 -1.6295 0
M  V30 26 H -1.54894 0.494004 -2.42072 0
M  V30 27 H -3.03785 -0.00841083 -1.61045 0
M  V30 28 H -2.36535 1.608 -1.207 0
M  V30 29 H -2.30633 -1.73124 -1.39271 0
M  V30 30 H -0.560567 -2.06925 -0.941127 0
M  V30 31 H -1.90178 -1.99655 0.347059 0
M  V30 END ATOM
M  V30 BEGIN BOND
M  V30 1 1 1 2
M  V30 2 1 2 3
M  V30 3 1 3 4
M  V30 4 1 4 5
M  V30 5 2 5 6
M  V30 6 1 6 7
M  V30 7 2 7 8
M  V30 8 1 8 9
M  V30 9 2 9 10
M  V30 10 1 10 11
M  V30 11 1 4 12
M  V30 12 1 3 13
M  V30 13 1 3 14
M  V30 14 1 10 5
M  V30 15 1 1 15
M  V30 16 1 1 16
M  V30 17 1 2 17
M  V30 18 1 2 18
M  V30 19 1 4 19
M  V30 20 1 6 20
M  V30 21 1 8 21
M  V30 22 1 9 22
M  V30 23 1 11 23
M  V30 24 1 11 24
M  V30 25 1 12 25
M  V30 26 1 13 26
M  V30 27 1 13 27
M  V30 28 1 13 28
M  V30 29 1 14 29
M  V30 30 1 14 30
M  V30 31 1 14 31
M  V30 END BOND
M  V30 END CTAB
M  END
