
     RDKit          3D

  0  0  0  0  0  0  0  0  0  0999 V3000
M  V30 BEGIN CTAB
M  V30 COUNTS 66 70 0 0 0
M  V30 BEGIN ATOM
M  V30 1 N 5.1309 -2.27772 0.519796 0
M  V30 2 C 4.82247 -0.860237 0.498516 0
M  V30 3 C 5.837 -0.198559 1.44082 0
M  V30 4 C 7.20173 -0.443995 0.78626 0
M  V30 5 C 7.18651 0.298422 -0.521103 0
M  V30 6 O 5.92313 0.778251 -0.849442 0
M  V30 7 C 4.96637 -0.256094 -0.860676 0
M  V30 8 C 3.69178 0.374633 -1.37882 0
M  V30 9 C 2.58791 -0.614732 -1.48056 0
M  V30 10 C 1.28909 0.079603 -1.84735 0
M  V30 11 N 1.0863 1.2055 -0.989634 0
M  V30 12 C 2.12045 2.21884 -0.952172 0
M  V30 13 C 3.3839 1.5572 -0.509077 0
M  V30 14 C -0.0593106 1.35856 -0.201367 0
M  V30 15 O -0.154324 2.39101 0.533885 0
M  V30 16 N -1.12138 0.425269 -0.177077 0
M  V30 17 C -2.2592 0.688779 0.679327 0
M  V30 18 C -3.27386 -0.41017 0.565795 0
M  V30 19 N -2.76208 -1.69308 0.938021 0
M  V30 20 C -3.78704 -0.488576 -0.848873 0
M  V30 21 C -4.42875 0.817978 -1.25648 0
M  V30 22 C -5.51384 1.20885 -0.30498 0
M  V30 23 C -5.05946 1.25302 1.12686 0
M  V30 24 C -4.41671 -0.061785 1.49751 0
M  V30 25 C -5.49619 -1.12175 1.45632 0
M  V30 26 C -6.00276 -1.1798 0.0311311 0
M  V30 27 C -4.89618 -1.54534 -0.910503 0
M  V30 28 C -6.59579 0.130899 -0.390456 0
M  V30 29 H 5.67659 -2.57045 1.34658 0
M  V30 30 H 5.46204 -2.63689 -0.384733 0
M  V30 31 H 3.81321 -0.668551 0.910974 0
M  V30 32 H 5.64497 0.868176 1.558 0
M  V30 33 H 5.78085 -0.703806 2.40699 0
M  V30 34 H 8.02916 -0.141145 1.43957 0
M  V30 35 H 7.23617 -1.53337 0.538328 0
M  V30 36 H 7.83821 1.18781 -0.398016 0
M  V30 37 H 7.6268 -0.308459 -1.34643 0
M  V30 38 H 5.34554 -1.04104 -1.56812 0
M  V30 39 H 3.91762 0.749462 -2.39752 0
M  V30 40 H 2.38806 -1.16815 -0.54081 0
M  V30 41 H 2.81754 -1.31769 -2.30963 0
M  V30 42 H 0.501081 -0.653064 -1.75551 0
M  V30 43 H 1.32002 0.405528 -2.9324 0
M  V30 44 H 2.25735 2.55037 -2.02025 0
M  V30 45 H 1.85479 3.07282 -0.310113 0
M  V30 46 H 4.26383 2.24407 -0.573269 0
M  V30 47 H 3.25639 1.25866 0.54948 0
M  V30 48 H -1.14649 -0.445293 -0.734622 0
M  V30 49 H -2.65173 1.67263 0.393552 0
M  V30 50 H -1.85617 0.753084 1.71465 0
M  V30 51 H -2.49946 -2.28488 0.134581 0
M  V30 52 H -2.03586 -1.6593 1.68653 0
M  V30 53 H -2.99089 -0.750324 -1.54368 0
M  V30 54 H -4.91918 0.622126 -2.24969 0
M  V30 55 H -3.69435 1.62148 -1.44614 0
M  V30 56 H -5.89843 2.18951 -0.597062 0
M  V30 57 H -5.99036 1.32796 1.75288 0
M  V30 58 H -4.44814 2.12615 1.37811 0
M  V30 59 H -3.96835 0.0149173 2.51925 0
M  V30 60 H -6.32886 -0.820264 2.09007 0
M  V30 61 H -5.101 -2.11219 1.72498 0
M  V30 62 H -6.79034 -1.95728 -0.0432014 0
M  V30 63 H -4.47063 -2.53698 -0.687128 0
M  V30 64 H -5.29892 -1.48054 -1.948 0
M  V30 65 H -7.45662 0.415111 0.256138 0
M  V30 66 H -6.88513 0.0748262 -1.44992 0
M  V30 END ATOM
M  V30 BEGIN BOND
M  V30 1 1 1 2
M  V30 2 1 2 3
M  V30 3 1 3 4
M  V30 4 1 4 5
M  V30 5 1 5 6
M  V30 6 1 6 7
M  V30 7 1 7 8
M  V30 8 1 8 9
M  V30 9 1 9 10
M  V30 10 1 10 11
M  V30 11 1 11 12
M  V30 12 1 12 13
M  V30 13 1 11 14
M  V30 14 2 14 15
M  V30 15 1 14 16
M  V30 16 1 16 17
M  V30 17 1 17 18
M  V30 18 1 18 19
M  V30 19 1 18 20
M  V30 20 1 20 21
M  V30 21 1 21 22
M  V30 22 1 22 23
M  V30 23 1 23 24
M  V30 24 1 24 25
M  V30 25 1 25 26
M  V30 26 1 26 27
M  V30 27 1 26 28
M  V30 28 1 7 2
M  V30 29 1 13 8
M  V30 30 1 24 18
M  V30 31 1 27 20
M  V30 32 1 28 22
M  V30 33 1 1 29
M  V30 34 1 1 30
M  V30 35 1 2 31
M  V30 36 1 3 32
M  V30 37 1 3 33
M  V30 38 1 4 34
M  V30 39 1 4 35
M  V30 40 1 5 36
M  V30 41 1 5 37
M  V30 42 1 7 38
M  V30 43 1 8 39
M  V30 44 1 9 40
M  V30 45 1 9 41
M  V30 46 1 10 42
M  V30 47 1 10 43
M  V30 48 1 12 44
M  V30 49 1 12 45
M  V30 50 1 13 46
M  V30 51 1 13 47
M  V30 52 1 16 48
M  V30 53 1 17 49
M  V30 54 1 17 50
M  V30 55 1 19 51
M  V30 56 1 19 52
M  V30 57 1 20 53
M  V30 58 1 21 54
M  V30 59 1 21 55
M  V30 60 1 22 56
M  V30 61 1 23 57
M  V30 62 1 23 58
M  V30 63 1 24 59
M  V30 64 1 25 60
M  V30 65 1 25 61
M  V30 66 1 26 62
M  V30 67 1 27 63
M  V30 68 1 27 64
M  V30 69 1 28 65
M  V30 70 1 28 66
M  V30 END BOND
M  V30 END CTAB
M  END
