
     RDKit          3D

  0  0  0  0  0  0  0  0  0  0999 V3000
M  V30 BEGIN CTAB
M  V30 COUNTS 38 38 0 0 0
M  V30 BEGIN ATOM
M  V30 1 C 3.50767 -1.32868 1.32138 0
M  V30 2 C 2.85141 -0.288263 0.505056 0
M  V30 3 N 3.51859 0.678431 0.00981664 0
M  V30 4 N 4.86978 0.89807 0.144598 0
M  V30 5 C 5.60188 1.45611 -0.923715 0
M  V30 6 N 5.61921 2.85245 -1.11484 0
M  V30 7 N 6.25528 0.697994 -1.7266 0
M  V30 8 C 1.43112 -0.355345 0.256165 0
M  V30 9 C 0.759158 0.594465 -0.504122 0
M  V30 10 C -0.599933 0.481401 -0.710287 0
M  V30 11 C -1.34376 -0.559649 -0.182138 0
M  V30 12 C -0.653664 -1.48544 0.566167 0
M  V30 13 C 0.708637 -1.39388 0.787071 0
M  V30 14 C -2.78985 -0.664017 -0.411952 0
M  V30 15 C -3.50336 -1.81731 0.195966 0
M  V30 16 N -3.42062 0.201349 -1.10851 0
M  V30 17 N -4.76865 0.186492 -1.3767 0
M  V30 18 C -5.78705 0.605578 -0.511835 0
M  V30 19 N -5.56881 1.75193 0.297619 0
M  V30 20 N -6.92014 0.00436293 -0.408621 0
M  V30 21 H 3.28737 -1.25173 2.39947 0
M  V30 22 H 4.61116 -1.24157 1.18587 0
M  V30 23 H 3.2413 -2.35527 1.00315 0
M  V30 24 H 5.42068 0.671055 1.02251 0
M  V30 25 H 5.40469 3.27839 -2.04134 0
M  V30 26 H 5.8479 3.50436 -0.332751 0
M  V30 27 H 6.2517 -0.340007 -1.59726 0
M  V30 28 H 1.36049 1.39233 -0.902448 0
M  V30 29 H -1.12056 1.23895 -1.31352 0
M  V30 30 H -1.18017 -2.31383 0.999904 0
M  V30 31 H 1.23696 -2.12795 1.37652 0
M  V30 32 H -2.92033 -2.75355 0.0300586 0
M  V30 33 H -4.51367 -1.95428 -0.237246 0
M  V30 34 H -3.53895 -1.65716 1.2997 0
M  V30 35 H -5.05531 -0.179249 -2.33321 0
M  V30 36 H -6.33271 2.20844 0.845571 0
M  V30 37 H -4.62703 2.19587 0.38378 0
M  V30 38 H -7.14042 -0.830846 -0.966624 0
M  V30 END ATOM
M  V30 BEGIN BOND
M  V30 1 1 1 2
M  V30 2 2 2 3 CFG=2
M  V30 3 1 3 4
M  V30 4 1 4 5
M  V30 5 1 5 6
M  V30 6 2 5 7 CFG=2
M  V30 7 1 2 8
M  V30 8 2 8 9
M  V30 9 1 9 10
M  V30 10 2 10 11
M  V30 11 1 11 12
M  V30 12 2 12 13
M  V30 13 1 11 14
M  V30 14 1 14 15
M  V30 15 2 14 16 CFG=2
M  V30 16 1 16 17
M  V30 17 1 17 18
M  V30 18 1 18 19
M  V30 19 2 18 20 CFG=2
M  V30 20 1 13 8
M  V30 21 1 1 21
M  V30 22 1 1 22
M  V30 23 1 1 23
M  V30 24 1 4 24
M  V30 25 1 6 25
M  V30 26 1 6 26
M  V30 27 1 7 27
M  V30 28 1 9 28
M  V30 29 1 10 29
M  V30 30 1 12 30
M  V30 31 1 13 31
M  V30 32 1 15 32
M  V30 33 1 15 33
M  V30 34 1 15 34
M  V30 35 1 17 35
M  V30 36 1 19 36
M  V30 37 1 19 37
M  V30 38 1 20 38
M  V30 END BOND
M  V30 END CTAB
M  END
