
     RDKit          3D

  0  0  0  0  0  0  0  0  0  0999 V3000
M  V30 BEGIN CTAB
M  V30 COUNTS 42 44 0 0 0
M  V30 BEGIN ATOM
M  V30 1 O -0.0775953 -0.798805 1.48777 0
M  V30 2 C -0.522568 -0.180027 0.448778 0
M  V30 3 C 0.326736 0.915655 -0.0715141 0
M  V30 4 C -0.378595 2.22034 0.00304302 0
M  V30 5 C -0.361308 3.06774 -1.08229 0
M  V30 6 C -1.00422 4.28724 -1.04936 0
M  V30 7 C -1.68628 4.67491 0.101952 0
M  V30 8 C -1.7102 3.83399 1.19511 0
M  V30 9 C -1.06195 2.61087 1.15389 0
M  V30 10 S 1.79871 1.04811 0.982336 0
M  V30 11 C 2.8327 -0.401241 0.845223 0
M  V30 12 N 3.9629 -0.447134 1.5702 0
M  V30 13 C 4.81091 -1.49009 1.54047 0
M  V30 14 N 5.99891 -1.48776 2.33119 0
M  V30 15 N 4.49291 -2.54036 0.731721 0
M  V30 16 C 3.37348 -2.53473 -0.0090221 0
M  V30 17 N 2.54608 -1.45164 0.0572301 0
M  V30 18 N 3.06449 -3.64391 -0.845246 0
M  V30 19 N -1.76128 -0.568706 -0.124231 0
M  V30 20 C -2.23298 0.142803 -1.28674 0
M  V30 21 C -3.29452 -0.747039 -1.94662 0
M  V30 22 O -2.85954 -2.04719 -1.86375 0
M  V30 23 C -3.09065 -2.56284 -0.586375 0
M  V30 24 C -2.49317 -1.6643 0.477301 0
M  V30 25 H 0.622445 0.745839 -1.13494 0
M  V30 26 H 0.158338 2.7949 -1.98709 0
M  V30 27 H -0.961789 4.91713 -1.92687 0
M  V30 28 H -2.18089 5.63795 0.0966367 0
M  V30 29 H -2.24545 4.16449 2.06619 0
M  V30 30 H -1.08055 1.9579 2.0028 0
M  V30 31 H 6.86569 -1.96639 2.03539 0
M  V30 32 H 5.94215 -0.967595 3.23871 0
M  V30 33 H 2.53124 -4.48154 -0.523251 0
M  V30 34 H 3.381 -3.6292 -1.82736 0
M  V30 35 H -2.7592 1.08534 -1.01328 0
M  V30 36 H -1.42778 0.269745 -2.02391 0
M  V30 37 H -4.24644 -0.674025 -1.37795 0
M  V30 38 H -3.44033 -0.397523 -2.97335 0
M  V30 39 H -2.56777 -3.53679 -0.531256 0
M  V30 40 H -4.17415 -2.69798 -0.40942 0
M  V30 41 H -1.79365 -2.22466 1.12505 0
M  V30 42 H -3.29583 -1.23348 1.10285 0
M  V30 END ATOM
M  V30 BEGIN BOND
M  V30 1 2 1 2
M  V30 2 1 2 3
M  V30 3 1 3 4
M  V30 4 2 4 5
M  V30 5 1 5 6
M  V30 6 2 6 7
M  V30 7 1 7 8
M  V30 8 2 8 9
M  V30 9 1 3 10
M  V30 10 1 10 11
M  V30 11 2 11 12
M  V30 12 1 12 13
M  V30 13 1 13 14
M  V30 14 2 13 15
M  V30 15 1 15 16
M  V30 16 2 16 17
M  V30 17 1 16 18
M  V30 18 1 2 19
M  V30 19 1 19 20
M  V30 20 1 20 21
M  V30 21 1 21 22
M  V30 22 1 22 23
M  V30 23 1 23 24
M  V30 24 1 9 4
M  V30 25 1 17 11
M  V30 26 1 24 19
M  V30 27 1 3 25
M  V30 28 1 5 26
M  V30 29 1 6 27
M  V30 30 1 7 28
M  V30 31 1 8 29
M  V30 32 1 9 30
M  V30 33 1 14 31
M  V30 34 1 14 32
M  V30 35 1 18 33
M  V30 36 1 18 34
M  V30 37 1 20 35
M  V30 38 1 20 36
M  V30 39 1 21 37
M  V30 40 1 21 38
M  V30 41 1 23 39
M  V30 42 1 23 40
M  V30 43 1 24 41
M  V30 44 1 24 42
M  V30 END BOND
M  V30 END CTAB
M  END
