
     RDKit          3D

  0  0  0  0  0  0  0  0  0  0999 V3000
M  V30 BEGIN CTAB
M  V30 COUNTS 44 46 0 0 0
M  V30 BEGIN ATOM
M  V30 1 C -2.85508 -0.0176597 1.8302 0
M  V30 2 C -3.32113 0.235717 0.406027 0
M  V30 3 C -4.14298 1.54251 0.49821 0
M  V30 4 N -4.24238 -0.763057 -0.0389398 0
M  V30 5 C -4.13309 -1.39099 -1.14769 0
M  V30 6 N -5.12741 -2.37351 -1.48248 0
M  V30 7 N -3.06411 -1.16476 -2.05102 0
M  V30 8 C -2.16911 -0.293616 -1.73724 0
M  V30 9 N -1.07799 -0.0592324 -2.65947 0
M  V30 10 N -2.24447 0.402236 -0.521346 0
M  V30 11 O -1.21251 1.26686 -0.278238 0
M  V30 12 C -0.0754752 0.626218 0.141808 0
M  V30 13 C 1.06286 1.62476 0.401248 0
M  V30 14 C 2.22918 0.899781 0.828276 0
M  V30 15 C 2.50245 0.843028 2.19028 0
M  V30 16 C 3.58334 0.147406 2.68867 0
M  V30 17 C 4.44142 -0.523885 1.84642 0
M  V30 18 C 4.19592 -0.486211 0.475438 0
M  V30 19 C 3.11396 0.213264 0.00790478 0
M  V30 20 C 2.88431 0.253798 -1.33751 0
M  V30 21 C 3.74878 -0.414212 -2.20279 0
M  V30 22 C 4.83691 -1.119 -1.73235 0
M  V30 23 C 5.0755 -1.16356 -0.375016 0
M  V30 24 H -3.78523 -0.171366 2.4458 0
M  V30 25 H -2.31464 0.851276 2.20214 0
M  V30 26 H -2.32006 -0.967232 1.84177 0
M  V30 27 H -3.70087 2.23095 1.23785 0
M  V30 28 H -5.20825 1.29536 0.740163 0
M  V30 29 H -4.0644 2.00695 -0.501681 0
M  V30 30 H -4.89171 -3.15463 -2.13812 0
M  V30 31 H -6.08985 -2.35654 -1.10486 0
M  V30 32 H -0.789803 -0.824611 -3.29084 0
M  V30 33 H -0.581484 0.842926 -2.70636 0
M  V30 34 H 0.289261 -0.180025 -0.502528 0
M  V30 35 H -0.305755 0.114313 1.12819 0
M  V30 36 H 0.70262 2.28247 1.2174 0
M  V30 37 H 1.11819 2.24073 -0.489788 0
M  V30 38 H 1.85884 1.3544 2.903 0
M  V30 39 H 3.76537 0.126018 3.76779 0
M  V30 40 H 5.30362 -1.08411 2.19348 0
M  V30 41 H 2.04165 0.811342 -1.69841 0
M  V30 42 H 3.5454 -0.367211 -3.26293 0
M  V30 43 H 5.49843 -1.6324 -2.41671 0
M  V30 44 H 5.91978 -1.70452 0.0556705 0
M  V30 END ATOM
M  V30 BEGIN BOND
M  V30 1 1 1 2
M  V30 2 1 2 3
M  V30 3 1 2 4
M  V30 4 2 4 5
M  V30 5 1 5 6
M  V30 6 1 5 7
M  V30 7 2 7 8
M  V30 8 1 8 9
M  V30 9 1 8 10
M  V30 10 1 10 11
M  V30 11 1 11 12
M  V30 12 1 12 13
M  V30 13 1 13 14
M  V30 14 2 14 15
M  V30 15 1 15 16
M  V30 16 2 16 17
M  V30 17 1 17 18
M  V30 18 2 18 19
M  V30 19 1 19 20
M  V30 20 2 20 21
M  V30 21 1 21 22
M  V30 22 2 22 23
M  V30 23 1 10 2
M  V30 24 1 19 14
M  V30 25 1 23 18
M  V30 26 1 1 24
M  V30 27 1 1 25
M  V30 28 1 1 26
M  V30 29 1 3 27
M  V30 30 1 3 28
M  V30 31 1 3 29
M  V30 32 1 6 30
M  V30 33 1 6 31
M  V30 34 1 9 32
M  V30 35 1 9 33
M  V30 36 1 12 34
M  V30 37 1 12 35
M  V30 38 1 13 36
M  V30 39 1 13 37
M  V30 40 1 15 38
M  V30 41 1 16 39
M  V30 42 1 17 40
M  V30 43 1 20 41
M  V30 44 1 21 42
M  V30 45 1 22 43
M  V30 46 1 23 44
M  V30 END BOND
M  V30 END CTAB
M  END
