
     RDKit          3D

  0  0  0  0  0  0  0  0  0  0999 V3000
M  V30 BEGIN CTAB
M  V30 COUNTS 24 24 0 0 0
M  V30 BEGIN ATOM
M  V30 1 N 2.63968 1.3211 -2.72893 0
M  V30 2 C 2.8254 0.823314 -1.69904 0
M  V30 3 C 3.04791 0.184361 -0.407882 0
M  V30 4 S 1.8875 -1.15418 -0.189327 0
M  V30 5 C 0.202217 -0.623355 -0.0576911 0
M  V30 6 N -0.141416 0.669036 -0.117846 0
M  V30 7 C -1.41306 1.07812 -0.0196231 0
M  V30 8 N -1.75531 2.4689 -0.0858343 0
M  V30 9 C -2.41474 0.160293 0.148304 0
M  V30 10 C -2.13551 -1.17345 0.217938 0
M  V30 11 C -0.794177 -1.55878 0.111035 0
M  V30 12 C -0.509956 -2.9735 0.1858 0
M  V30 13 N -0.266345 -4.10378 0.25568 0
M  V30 14 N -3.16995 -2.11966 0.390441 0
M  V30 15 C 3.00467 1.23477 0.65652 0
M  V30 16 H 4.08088 -0.270572 -0.351569 0
M  V30 17 H -1.72593 3.01414 0.791006 0
M  V30 18 H -2.01872 2.88763 -0.988219 0
M  V30 19 H -3.45592 0.457828 0.230937 0
M  V30 20 H -3.10574 -2.87221 1.09737 0
M  V30 21 H -4.00835 -2.0438 -0.215247 0
M  V30 22 H 2.11411 1.8681 0.651448 0
M  V30 23 H 3.23802 0.801731 1.66894 0
M  V30 24 H 3.87473 1.92396 0.455787 0
M  V30 END ATOM
M  V30 BEGIN BOND
M  V30 1 3 1 2
M  V30 2 1 2 3
M  V30 3 1 3 4
M  V30 4 1 4 5
M  V30 5 2 5 6
M  V30 6 1 6 7
M  V30 7 1 7 8
M  V30 8 2 7 9
M  V30 9 1 9 10
M  V30 10 2 10 11
M  V30 11 1 11 12
M  V30 12 3 12 13
M  V30 13 1 10 14
M  V30 14 1 3 15
M  V30 15 1 11 5
M  V30 16 1 3 16
M  V30 17 1 8 17
M  V30 18 1 8 18
M  V30 19 1 9 19
M  V30 20 1 14 20
M  V30 21 1 14 21
M  V30 22 1 15 22
M  V30 23 1 15 23
M  V30 24 1 15 24
M  V30 END BOND
M  V30 END CTAB
M  END
