
     RDKit          3D

  0  0  0  0  0  0  0  0  0  0999 V3000
M  V30 BEGIN CTAB
M  V30 COUNTS 22 22 0 0 0
M  V30 BEGIN ATOM
M  V30 1 N -3.18844 1.25201 -0.997826 0
M  V30 2 S -2.64244 0.637789 0.516218 0
M  V30 3 O -2.4442 1.72302 1.53303 0
M  V30 4 O -3.74657 -0.259338 1.04535 0
M  V30 5 C -1.1851 -0.317587 0.308167 0
M  V30 6 C 0.0388071 0.281368 0.383295 0
M  V30 7 C 1.18902 -0.448698 0.223371 0
M  V30 8 C 1.06732 -1.80138 -0.0146595 0
M  V30 9 F 2.16795 -2.59163 -0.184034 0
M  V30 10 C -0.154454 -2.41766 -0.0929301 0
M  V30 11 C -1.27863 -1.66576 0.0702159 0
M  V30 12 S 2.79738 0.22375 0.301624 0
M  V30 13 N 2.7773 1.90893 0.602522 0
M  V30 14 O 3.64559 -0.504739 1.31729 0
M  V30 15 O 3.4426 -0.0490401 -1.0495 0
M  V30 16 H -2.43866 1.74082 -1.52794 0
M  V30 17 H -4.00965 1.86243 -0.799365 0
M  V30 18 H 0.13568 1.34827 0.571021 0
M  V30 19 H -0.227068 -3.48024 -0.280511 0
M  V30 20 H -2.26819 -2.14034 0.0111855 0
M  V30 21 H 3.68963 2.22251 1.00795 0
M  V30 22 H 2.63214 2.47552 -0.262689 0
M  V30 END ATOM
M  V30 BEGIN BOND
M  V30 1 1 1 2
M  V30 2 2 2 3
M  V30 3 2 2 4
M  V30 4 1 2 5
M  V30 5 2 5 6
M  V30 6 1 6 7
M  V30 7 2 7 8
M  V30 8 1 8 9
M  V30 9 1 8 10
M  V30 10 2 10 11
M  V30 11 1 7 12
M  V30 12 1 12 13
M  V30 13 2 12 14
M  V30 14 2 12 15
M  V30 15 1 11 5
M  V30 16 1 1 16
M  V30 17 1 1 17
M  V30 18 1 6 18
M  V30 19 1 10 19
M  V30 20 1 11 20
M  V30 21 1 13 21
M  V30 22 1 13 22
M  V30 END BOND
M  V30 END CTAB
M  END
