
     RDKit          3D

  0  0  0  0  0  0  0  0  0  0999 V3000
M  V30 BEGIN CTAB
M  V30 COUNTS 42 43 0 0 0
M  V30 BEGIN ATOM
M  V30 1 N -2.05594 -2.79147 -2.23032 0
M  V30 2 C -2.32143 -2.05792 -1.02172 0
M  V30 3 C -1.07668 -1.49622 -0.381706 0
M  V30 4 C -0.0805213 -2.56428 -0.00210668 0
M  V30 5 N -0.662609 -3.5155 0.954114 0
M  V30 6 C -0.5274 -0.197613 -0.76918 0
M  V30 7 C -1.26519 -0.327213 0.482666 0
M  V30 8 S -2.73245 0.638189 0.598415 0
M  V30 9 O -3.82664 0.0076093 1.35796 0
M  V30 10 O -3.26412 1.06826 -0.764567 0
M  V30 11 C -2.2109 2.20377 1.33651 0
M  V30 12 C -3.38419 3.12602 1.49046 0
M  V30 13 C 0.866456 0.224725 -0.732995 0
M  V30 14 C 1.5143 0.628786 -1.88652 0
M  V30 15 C 2.81449 1.05522 -1.90524 0
M  V30 16 C 3.5354 1.09215 -0.723987 0
M  V30 17 C 2.88992 0.690808 0.418063 0
M  V30 18 C 1.59461 0.267848 0.425629 0
M  V30 19 O 4.85262 1.52204 -0.73046 0
M  V30 20 C 5.59111 1.5612 0.471549 0
M  V30 21 H -2.9649 -3.12344 -2.60078 0
M  V30 22 H -1.49012 -2.2771 -2.92421 0
M  V30 23 H -2.83461 -2.75358 -0.323249 0
M  V30 24 H -3.0613 -1.27772 -1.26667 0
M  V30 25 H 0.833997 -2.2102 0.46742 0
M  V30 26 H 0.161774 -3.20679 -0.901069 0
M  V30 27 H -1.29006 -4.17477 0.417624 0
M  V30 28 H 0.147595 -4.10923 1.26812 0
M  V30 29 H -1.06913 0.229468 -1.67397 0
M  V30 30 H -0.805979 -0.454657 1.48926 0
M  V30 31 H -1.51345 2.64964 0.585954 0
M  V30 32 H -1.69267 1.9803 2.2714 0
M  V30 33 H -3.51208 3.33976 2.58433 0
M  V30 34 H -4.30186 2.67931 1.10257 0
M  V30 35 H -3.19059 4.11808 1.01918 0
M  V30 36 H 0.997074 0.623427 -2.86017 0
M  V30 37 H 3.29964 1.36666 -2.82203 0
M  V30 38 H 3.46835 0.725548 1.33538 0
M  V30 39 H 1.18177 -0.0254537 1.38142 0
M  V30 40 H 5.01 2.10228 1.23322 0
M  V30 41 H 5.82023 0.561639 0.861327 0
M  V30 42 H 6.55547 2.10043 0.305392 0
M  V30 END ATOM
M  V30 BEGIN BOND
M  V30 1 1 1 2
M  V30 2 1 2 3
M  V30 3 1 3 4
M  V30 4 1 4 5
M  V30 5 1 3 6
M  V30 6 1 6 7
M  V30 7 1 7 8
M  V30 8 2 8 9
M  V30 9 2 8 10
M  V30 10 1 8 11
M  V30 11 1 11 12
M  V30 12 1 6 13
M  V30 13 2 13 14
M  V30 14 1 14 15
M  V30 15 2 15 16
M  V30 16 1 16 17
M  V30 17 2 17 18
M  V30 18 1 16 19
M  V30 19 1 19 20
M  V30 20 1 7 3
M  V30 21 1 18 13
M  V30 22 1 1 21
M  V30 23 1 1 22
M  V30 24 1 2 23
M  V30 25 1 2 24
M  V30 26 1 4 25
M  V30 27 1 4 26
M  V30 28 1 5 27
M  V30 29 1 5 28
M  V30 30 1 6 29
M  V30 31 1 7 30
M  V30 32 1 11 31
M  V30 33 1 11 32
M  V30 34 1 12 33
M  V30 35 1 12 34
M  V30 36 1 12 35
M  V30 37 1 14 36
M  V30 38 1 15 37
M  V30 39 1 17 38
M  V30 40 1 18 39
M  V30 41 1 20 40
M  V30 42 1 20 41
M  V30 43 1 20 42
M  V30 END BOND
M  V30 END CTAB
M  END
