
     RDKit          3D

  0  0  0  0  0  0  0  0  0  0999 V3000
M  V30 BEGIN CTAB
M  V30 COUNTS 28 28 0 0 0
M  V30 BEGIN ATOM
M  V30 1 N -4.95845 -0.0585741 -0.245679 0
M  V30 2 C -3.57761 -0.234903 -0.647245 0
M  V30 3 C -2.65833 0.260148 0.448782 0
M  V30 4 C -1.23513 0.104954 0.0940724 0
M  V30 5 C -0.531572 1.08627 -0.557424 0
M  V30 6 C 0.818013 0.900485 -0.876427 0
M  V30 7 C 1.46197 -0.27441 -0.539813 0
M  V30 8 C 2.88295 -0.532252 -0.847272 0
M  V30 9 C 3.78 -0.0690426 0.28431 0
M  V30 10 N 3.6669 1.33308 0.557753 0
M  V30 11 C 0.733274 -1.24464 0.114194 0
M  V30 12 C -0.595035 -1.06135 0.427974 0
M  V30 13 H -5.49099 -0.956096 -0.345352 0
M  V30 14 H -4.98943 0.234473 0.762949 0
M  V30 15 H -3.37163 -1.25991 -0.951825 0
M  V30 16 H -3.43065 0.428847 -1.53986 0
M  V30 17 H -2.84706 1.33466 0.616586 0
M  V30 18 H -2.90538 -0.325207 1.35731 0
M  V30 19 H -1.03538 2.0075 -0.821686 0
M  V30 20 H 1.3836 1.65214 -1.38343 0
M  V30 21 H 3.02505 -1.63255 -0.922443 0
M  V30 22 H 3.1951 -0.115103 -1.8162 0
M  V30 23 H 3.63481 -0.688124 1.19093 0
M  V30 24 H 4.83041 -0.293984 -0.0566125 0
M  V30 25 H 4.44336 1.6258 1.16249 0
M  V30 26 H 3.66756 1.83833 -0.375197 0
M  V30 27 H 1.21321 -2.18855 0.395795 0
M  V30 28 H -1.10957 -1.87199 0.946271 0
M  V30 END ATOM
M  V30 BEGIN BOND
M  V30 1 1 1 2
M  V30 2 1 2 3
M  V30 3 1 3 4
M  V30 4 2 4 5
M  V30 5 1 5 6
M  V30 6 2 6 7
M  V30 7 1 7 8
M  V30 8 1 8 9
M  V30 9 1 9 10
M  V30 10 1 7 11
M  V30 11 2 11 12
M  V30 12 1 12 4
M  V30 13 1 1 13
M  V30 14 1 1 14
M  V30 15 1 2 15
M  V30 16 1 2 16
M  V30 17 1 3 17
M  V30 18 1 3 18
M  V30 19 1 5 19
M  V30 20 1 6 20
M  V30 21 1 8 21
M  V30 22 1 8 22
M  V30 23 1 9 23
M  V30 24 1 9 24
M  V30 25 1 10 25
M  V30 26 1 10 26
M  V30 27 1 11 27
M  V30 28 1 12 28
M  V30 END BOND
M  V30 END CTAB
M  END
