
     RDKit          3D

  0  0  0  0  0  0  0  0  0  0999 V3000
M  V30 BEGIN CTAB
M  V30 COUNTS 67 66 0 0 0
M  V30 BEGIN ATOM
M  V30 1 C 8.49976 -0.788022 0.844118 0
M  V30 2 C 7.0761 -0.43128 0.331894 0
M  V30 3 C 6.20362 -1.52051 0.803523 0
M  V30 4 C 4.79379 -1.60183 0.454768 0
M  V30 5 C 3.8061 -0.578378 0.785055 0
M  V30 6 C 3.98653 0.731443 0.108967 0
M  V30 7 C 2.88908 1.71823 0.500862 0
M  V30 8 C 1.50635 1.24359 0.162504 0
M  V30 9 C 1.4094 1.00877 -1.30369 0
M  V30 10 C 0.0265881 0.506613 -1.75292 0
M  V30 11 C -1.03819 1.48674 -1.44092 0
M  V30 12 C -2.41776 1.29824 -1.84364 0
M  V30 13 C -3.31184 0.210634 -1.42004 0
M  V30 14 C -2.9607 -1.17452 -1.76423 0
M  V30 15 N -3.78665 -2.21892 -1.33316 0
M  V30 16 C -3.74561 -2.72504 -0.028468 0
M  V30 17 C -2.42565 -3.48291 0.219016 0
M  V30 18 N -2.51854 -3.95361 1.60451 0
M  V30 19 C -3.88031 0.364466 -0.0493476 0
M  V30 20 N -4.62222 1.64422 0.0761726 0
M  V30 21 C -5.18039 1.67028 1.44208 0
M  V30 22 C -5.98797 2.93605 1.63132 0
M  V30 23 N -5.13808 4.07684 1.42898 0
M  V30 24 H 8.42205 -1.38257 1.75215 0
M  V30 25 H 9.06986 0.136624 1.0418 0
M  V30 26 H 8.99592 -1.34471 0.0189865 0
M  V30 27 H 6.88667 0.53273 0.871631 0
M  V30 28 H 7.15053 -0.283784 -0.739416 0
M  V30 29 H 6.70643 -2.50143 0.484323 0
M  V30 30 H 6.28068 -1.50318 1.9542 0
M  V30 31 H 4.42006 -2.63121 0.828775 0
M  V30 32 H 4.76312 -1.81912 -0.68915 0
M  V30 33 H 3.74795 -0.350392 1.88829 0
M  V30 34 H 2.78258 -0.973678 0.482025 0
M  V30 35 H 4.94633 1.20193 0.349302 0
M  V30 36 H 4.00973 0.559509 -0.989988 0
M  V30 37 H 3.05843 2.6854 -0.00763169 0
M  V30 38 H 2.96106 1.81136 1.60407 0
M  V30 39 H 0.814262 2.06065 0.510179 0
M  V30 40 H 1.28568 0.336961 0.767321 0
M  V30 41 H 1.69576 1.92706 -1.85607 0
M  V30 42 H 2.11966 0.205053 -1.58162 0
M  V30 43 H 0.0888965 0.35025 -2.84 0
M  V30 44 H -0.119419 -0.423419 -1.15618 0
M  V30 45 H -0.688222 2.46514 -1.94621 0
M  V30 46 H -0.97865 1.81589 -0.345553 0
M  V30 47 H -2.98891 2.26795 -1.66496 0
M  V30 48 H -2.46233 1.2733 -3.01386 0
M  V30 49 H -4.27302 0.397086 -2.09645 0
M  V30 50 H -1.92462 -1.40003 -1.38905 0
M  V30 51 H -2.88515 -1.30277 -2.90923 0
M  V30 52 H -4.19397 -2.83642 -2.04018 0
M  V30 53 H -4.51589 -3.54926 0.0337178 0
M  V30 54 H -3.87823 -2.11752 0.842884 0
M  V30 55 H -2.30538 -4.31941 -0.477128 0
M  V30 56 H -1.6277 -2.71828 0.141525 0
M  V30 57 H -3.46444 -4.41048 1.66802 0
M  V30 58 H -2.57409 -3.09698 2.22027 0
M  V30 59 H -3.18391 0.255145 0.744907 0
M  V30 60 H -4.76941 -0.357618 -0.0261846 0
M  V30 61 H -3.90483 2.43005 0.0965253 0
M  V30 62 H -4.41237 1.51544 2.20113 0
M  V30 63 H -5.8833 0.808835 1.49066 0
M  V30 64 H -6.81057 2.88345 0.869111 0
M  V30 65 H -6.39038 2.94429 2.64164 0
M  V30 66 H -4.97599 4.24871 0.400084 0
M  V30 67 H -4.17832 3.78835 1.78564 0
M  V30 END ATOM
M  V30 BEGIN BOND
M  V30 1 1 1 2
M  V30 2 1 2 3
M  V30 3 1 3 4
M  V30 4 1 4 5
M  V30 5 1 5 6
M  V30 6 1 6 7
M  V30 7 1 7 8
M  V30 8 1 8 9
M  V30 9 1 9 10
M  V30 10 1 10 11
M  V30 11 1 11 12
M  V30 12 1 12 13
M  V30 13 1 13 14
M  V30 14 1 14 15
M  V30 15 1 15 16
M  V30 16 1 16 17
M  V30 17 1 17 18
M  V30 18 1 13 19
M  V30 19 1 19 20
M  V30 20 1 20 21
M  V30 21 1 21 22
M  V30 22 1 22 23
M  V30 23 1 1 24
M  V30 24 1 1 25
M  V30 25 1 1 26
M  V30 26 1 2 27
M  V30 27 1 2 28
M  V30 28 1 3 29
M  V30 29 1 3 30
M  V30 30 1 4 31
M  V30 31 1 4 32
M  V30 32 1 5 33
M  V30 33 1 5 34
M  V30 34 1 6 35
M  V30 35 1 6 36
M  V30 36 1 7 37
M  V30 37 1 7 38
M  V30 38 1 8 39
M  V30 39 1 8 40
M  V30 40 1 9 41
M  V30 41 1 9 42
M  V30 42 1 10 43
M  V30 43 1 10 44
M  V30 44 1 11 45
M  V30 45 1 11 46
M  V30 46 1 12 47
M  V30 47 1 12 48
M  V30 48 1 13 49
M  V30 49 1 14 50
M  V30 50 1 14 51
M  V30 51 1 15 52
M  V30 52 1 16 53
M  V30 53 1 16 54
M  V30 54 1 17 55
M  V30 55 1 17 56
M  V30 56 1 18 57
M  V30 57 1 18 58
M  V30 58 1 19 59
M  V30 59 1 19 60
M  V30 60 1 20 61
M  V30 61 1 21 62
M  V30 62 1 21 63
M  V30 63 1 22 64
M  V30 64 1 22 65
M  V30 65 1 23 66
M  V30 66 1 23 67
M  V30 END BOND
M  V30 END CTAB
M  END
