
     RDKit          3D

  0  0  0  0  0  0  0  0  0  0999 V3000
M  V30 BEGIN CTAB
M  V30 COUNTS 35 36 0 0 0
M  V30 BEGIN ATOM
M  V30 1 O -0.930064 -0.350182 1.45033 0
M  V30 2 C -0.669988 -0.0703834 0.276115 0
M  V30 3 N -1.61334 0.214624 -0.726093 0
M  V30 4 C -3.01014 0.242589 -0.615255 0
M  V30 5 C -3.69394 -0.015742 0.538974 0
M  V30 6 C -5.09814 0.0220145 0.611354 0
M  V30 7 C -5.80169 0.32908 -0.517627 0
M  V30 8 C -5.12928 0.593368 -1.69418 0
M  V30 9 C -3.75259 0.555581 -1.76199 0
M  V30 10 Cl -2.91925 0.898314 -3.28164 0
M  V30 11 C -7.28348 0.3798 -0.485321 0
M  V30 12 C 0.783422 -0.0296279 -0.121998 0
M  V30 13 S 1.81152 -0.425036 1.31388 0
M  V30 14 C 3.51765 -0.362341 0.785703 0
M  V30 15 N 4.11413 -1.46161 0.302109 0
M  V30 16 C 5.39242 -1.50521 -0.117777 0
M  V30 17 N 5.98916 -2.69111 -0.624486 0
M  V30 18 C 6.14129 -0.332403 -0.0442639 0
M  V30 19 C 5.54302 0.799377 0.448564 0
M  V30 20 N 4.26584 0.755197 0.844698 0
M  V30 21 N 6.30216 1.98974 0.523406 0
M  V30 22 H -1.21205 0.442903 -1.71457 0
M  V30 23 H -3.17156 -0.257531 1.43318 0
M  V30 24 H -5.58317 -0.187838 1.53769 0
M  V30 25 H -5.68255 0.83761 -2.59296 0
M  V30 26 H -7.67209 0.176802 -1.5242 0
M  V30 27 H -7.69393 -0.376095 0.198942 0
M  V30 28 H -7.66604 1.36381 -0.153705 0
M  V30 29 H 1.05407 0.94126 -0.55519 0
M  V30 30 H 0.932581 -0.818766 -0.884436 0
M  V30 31 H 6.28026 -2.75217 -1.61716 0
M  V30 32 H 6.12889 -3.49698 0.0178165 0
M  V30 33 H 7.17254 -0.364051 -0.382069 0
M  V30 34 H 5.92844 2.88255 0.0824407 0
M  V30 35 H 7.2259 2.07246 0.987706 0
M  V30 END ATOM
M  V30 BEGIN BOND
M  V30 1 2 1 2
M  V30 2 1 2 3
M  V30 3 1 3 4
M  V30 4 2 4 5
M  V30 5 1 5 6
M  V30 6 2 6 7
M  V30 7 1 7 8
M  V30 8 2 8 9
M  V30 9 1 9 10
M  V30 10 1 7 11
M  V30 11 1 2 12
M  V30 12 1 12 13
M  V30 13 1 13 14
M  V30 14 2 14 15
M  V30 15 1 15 16
M  V30 16 1 16 17
M  V30 17 2 16 18
M  V30 18 1 18 19
M  V30 19 2 19 20
M  V30 20 1 19 21
M  V30 21 1 9 4
M  V30 22 1 20 14
M  V30 23 1 3 22
M  V30 24 1 5 23
M  V30 25 1 6 24
M  V30 26 1 8 25
M  V30 27 1 11 26
M  V30 28 1 11 27
M  V30 29 1 11 28
M  V30 30 1 12 29
M  V30 31 1 12 30
M  V30 32 1 17 31
M  V30 33 1 17 32
M  V30 34 1 18 33
M  V30 35 1 21 34
M  V30 36 1 21 35
M  V30 END BOND
M  V30 END CTAB
M  END
