
     RDKit          3D

  0  0  0  0  0  0  0  0  0  0999 V3000
M  V30 BEGIN CTAB
M  V30 COUNTS 43 45 0 0 0
M  V30 BEGIN ATOM
M  V30 1 O 1.55034 1.85257 3.09169 0
M  V30 2 C 1.08731 2.53677 2.16483 0
M  V30 3 N 1.37066 2.2891 0.822612 0
M  V30 4 C 2.19576 1.24711 0.373611 0
M  V30 5 C 2.86732 1.37972 -0.854556 0
M  V30 6 C 3.65979 0.384849 -1.32884 0
M  V30 7 C 3.83095 -0.779345 -0.628243 0
M  V30 8 C 3.19447 -0.958987 0.580316 0
M  V30 9 C 2.38196 0.0867954 1.0445 0
M  V30 10 S 4.85381 -2.08276 -1.20894 0
M  V30 11 O 6.02274 -1.55231 -1.99702 0
M  V30 12 O 5.3614 -2.82712 0.00305118 0
M  V30 13 N 3.88543 -3.14009 -2.14742 0
M  V30 14 C 0.191713 3.67312 2.54031 0
M  V30 15 S -1.44645 3.09779 2.93971 0
M  V30 16 C -2.33784 2.38555 1.5771 0
M  V30 17 N -3.13507 2.95557 0.662566 0
M  V30 18 N -3.59427 2.03084 -0.147686 0
M  V30 19 C -3.10593 0.796092 0.211273 0
M  V30 20 N -2.33487 1.04959 1.2777 0
M  V30 21 N -1.61067 0.0996712 2.01425 0
M  V30 22 C -3.42482 -0.445569 -0.482759 0
M  V30 23 C -4.26751 -0.379268 -1.5795 0
M  V30 24 C -4.64408 -1.4903 -2.31381 0
M  V30 25 C -4.15633 -2.72806 -1.93548 0
M  V30 26 C -3.3181 -2.79718 -0.844834 0
M  V30 27 C -2.94818 -1.66414 -0.115022 0
M  V30 28 Cl -4.5902 -4.18262 -2.82366 0
M  V30 29 H 0.924068 2.94432 0.109914 0
M  V30 30 H 2.7006 2.32113 -1.37447 0
M  V30 31 H 4.16074 0.519242 -2.27509 0
M  V30 32 H 3.3045 -1.85613 1.15719 0
M  V30 33 H 1.89329 -0.109288 1.9786 0
M  V30 34 H 3.29575 -3.71102 -1.48341 0
M  V30 35 H 3.21685 -2.5604 -2.70999 0
M  V30 36 H 0.229948 4.43054 1.719 0
M  V30 37 H 0.601705 4.19111 3.43058 0
M  V30 38 H -1.95197 -0.33775 2.89521 0
M  V30 39 H -0.672766 -0.199161 1.6758 0
M  V30 40 H -4.68909 0.576642 -1.93119 0
M  V30 41 H -5.30424 -1.42026 -3.16795 0
M  V30 42 H -2.95822 -3.78427 -0.582819 0
M  V30 43 H -2.29049 -1.84211 0.716604 0
M  V30 END ATOM
M  V30 BEGIN BOND
M  V30 1 2 1 2
M  V30 2 1 2 3
M  V30 3 1 3 4
M  V30 4 2 4 5
M  V30 5 1 5 6
M  V30 6 2 6 7
M  V30 7 1 7 8
M  V30 8 2 8 9
M  V30 9 1 7 10
M  V30 10 2 10 11
M  V30 11 2 10 12
M  V30 12 1 10 13
M  V30 13 1 2 14
M  V30 14 1 14 15
M  V30 15 1 15 16
M  V30 16 2 16 17
M  V30 17 1 17 18
M  V30 18 2 18 19
M  V30 19 1 19 20
M  V30 20 1 20 21
M  V30 21 1 19 22
M  V30 22 2 22 23
M  V30 23 1 23 24
M  V30 24 2 24 25
M  V30 25 1 25 26
M  V30 26 2 26 27
M  V30 27 1 25 28
M  V30 28 1 9 4
M  V30 29 1 20 16
M  V30 30 1 27 22
M  V30 31 1 3 29
M  V30 32 1 5 30
M  V30 33 1 6 31
M  V30 34 1 8 32
M  V30 35 1 9 33
M  V30 36 1 13 34
M  V30 37 1 13 35
M  V30 38 1 14 36
M  V30 39 1 14 37
M  V30 40 1 21 38
M  V30 41 1 21 39
M  V30 42 1 23 40
M  V30 43 1 24 41
M  V30 44 1 26 42
M  V30 45 1 27 43
M  V30 END BOND
M  V30 END CTAB
M  END
