
     RDKit          3D

  0  0  0  0  0  0  0  0  0  0999 V3000
M  V30 BEGIN CTAB
M  V30 COUNTS 62 66 0 0 0
M  V30 BEGIN ATOM
M  V30 1 N 8.82555 2.51645 1.60541 0
M  V30 2 C 7.91759 1.86806 0.714715 0
M  V30 3 N 6.57649 2.04931 0.843739 0
M  V30 4 C 5.71463 1.44341 0.0099435 0
M  V30 5 O 4.45266 1.61075 0.127273 0
M  V30 6 N 6.09338 0.630276 -0.993369 0
M  V30 7 C 7.42041 0.444156 -1.12956 0
M  V30 8 C 8.33459 1.04377 -0.299856 0
M  V30 9 C 5.13412 -0.0169509 -1.88767 0 CFG=1
M  V30 10 C 5.40266 -1.50569 -1.79822 0
M  V30 11 C 4.27887 -1.91723 -0.86752 0 CFG=2
M  V30 12 O 3.97486 -3.25242 -0.945859 0
M  V30 13 C 3.19444 -1.0204 -1.42516 0 CFG=1
M  V30 14 C 1.97677 -0.983284 -0.546795 0
M  V30 15 O 1.06674 -0.0361338 -1.01099 0
M  V30 16 P -0.314534 0.0252118 -0.036523 0
M  V30 17 O 0.0367888 -0.758087 1.444 0
M  V30 18 O -0.633575 1.48322 0.182672 0
M  V30 19 O -1.53682 -0.830907 -0.766875 0
M  V30 20 C -2.64306 -1.06554 0.0342406 0 CFG=2
M  V30 21 C -3.01894 -2.5216 0.108883 0 CFG=1
M  V30 22 C -3.81313 -2.77623 1.37326 0
M  V30 23 O -3.02042 -2.52539 2.49555 0
M  V30 24 O -3.79695 -2.76794 -1.00041 0
M  V30 25 C -4.6529 -1.66762 -1.09449 0
M  V30 26 C -3.83724 -0.464008 -0.673983 0 CFG=1
M  V30 27 N -4.57925 0.460651 0.12841 0
M  V30 28 C -4.17224 1.20686 1.16876 0
M  V30 29 N -5.19872 1.95348 1.64964 0
M  V30 30 C -6.2954 1.68988 0.909807 0
M  V30 31 C -5.89687 0.762291 -0.0300689 0
M  V30 32 N -6.78892 0.308242 -0.915306 0
M  V30 33 C -8.04991 0.768584 -0.864745 0
M  V30 34 N -8.45824 1.68248 0.0551061 0
M  V30 35 C -7.59298 2.1649 0.963412 0
M  V30 36 N -7.97289 3.12028 1.94289 0
M  V30 37 O 3.8529 0.206884 -1.4652 0
M  V30 38 H 8.52999 2.73661 2.57645 0
M  V30 39 H 9.76907 2.76947 1.30113 0
M  V30 40 H 7.73503 -0.22126 -1.95046 0
M  V30 41 H 9.38488 0.869798 -0.44166 0
M  V30 42 H 5.30232 0.368502 -2.91514 0
M  V30 43 H 5.20452 -2.00464 -2.76817 0
M  V30 44 H 6.39987 -1.72527 -1.38312 0
M  V30 45 H 4.51082 -1.57399 0.158662 0
M  V30 46 H 3.73412 -3.56289 -0.0211501 0
M  V30 47 H 2.95657 -1.2775 -2.47841 0
M  V30 48 H 1.53175 -1.98603 -0.39742 0
M  V30 49 H 2.32468 -0.644629 0.465864 0
M  V30 50 H -0.0589144 -0.0815119 2.16037 0
M  V30 51 H -2.56935 -0.647984 1.03933 0
M  V30 52 H -2.1445 -3.19574 0.144164 0
M  V30 53 H -4.1092 -3.84355 1.38373 0
M  V30 54 H -4.71934 -2.15707 1.4485 0
M  V30 55 H -3.54567 -2.0222 3.18335 0
M  V30 56 H -5.01647 -1.61163 -2.12794 0
M  V30 57 H -5.49814 -1.87915 -0.415293 0
M  V30 58 H -3.55517 0.0635242 -1.61306 0
M  V30 59 H -3.15694 1.21957 1.57978 0
M  V30 60 H -8.76145 0.377812 -1.60456 0
M  V30 61 H -7.87426 2.89356 2.96091 0
M  V30 62 H -8.35465 4.06009 1.70903 0
M  V30 END ATOM
M  V30 BEGIN BOND
M  V30 1 1 1 2
M  V30 2 2 2 3
M  V30 3 1 3 4
M  V30 4 2 4 5
M  V30 5 1 4 6
M  V30 6 1 6 7
M  V30 7 2 7 8
M  V30 8 1 6 9
M  V30 9 1 9 10
M  V30 10 1 10 11
M  V30 11 1 11 12
M  V30 12 1 11 13
M  V30 13 1 13 14
M  V30 14 1 14 15
M  V30 15 1 15 16
M  V30 16 1 16 17
M  V30 17 2 16 18
M  V30 18 1 16 19
M  V30 19 1 19 20
M  V30 20 1 20 21
M  V30 21 1 21 22
M  V30 22 1 22 23
M  V30 23 1 21 24
M  V30 24 1 24 25
M  V30 25 1 25 26
M  V30 26 1 26 27
M  V30 27 1 27 28
M  V30 28 2 28 29
M  V30 29 1 29 30
M  V30 30 2 30 31
M  V30 31 1 31 32
M  V30 32 2 32 33
M  V30 33 1 33 34
M  V30 34 2 34 35
M  V30 35 1 35 36
M  V30 36 1 13 37
M  V30 37 1 8 2
M  V30 38 1 37 9
M  V30 39 1 26 20
M  V30 40 1 31 27
M  V30 41 1 35 30
M  V30 42 1 1 38
M  V30 43 1 1 39
M  V30 44 1 7 40
M  V30 45 1 8 41
M  V30 46 1 9 42 CFG=3
M  V30 47 1 10 43
M  V30 48 1 10 44
M  V30 49 1 11 45 CFG=1
M  V30 50 1 12 46
M  V30 51 1 13 47 CFG=3
M  V30 52 1 14 48
M  V30 53 1 14 49
M  V30 54 1 17 50
M  V30 55 1 20 51 CFG=1
M  V30 56 1 21 52 CFG=3
M  V30 57 1 22 53
M  V30 58 1 22 54
M  V30 59 1 23 55
M  V30 60 1 25 56
M  V30 61 1 25 57
M  V30 62 1 26 58 CFG=3
M  V30 63 1 28 59
M  V30 64 1 33 60
M  V30 65 1 36 61
M  V30 66 1 36 62
M  V30 END BOND
M  V30 END CTAB
M  END
