
     RDKit          3D

  0  0  0  0  0  0  0  0  0  0999 V3000
M  V30 BEGIN CTAB
M  V30 COUNTS 27 27 0 0 0
M  V30 BEGIN ATOM
M  V30 1 N -2.3691 1.71572 0.167925 0
M  V30 2 C -2.09063 0.328029 0.208954 0
M  V30 3 C -3.10258 -0.545584 0.571628 0
M  V30 4 C -2.87269 -1.90366 0.623818 0
M  V30 5 C -1.60883 -2.34595 0.303221 0
M  V30 6 C -0.583691 -1.46411 -0.0641307 0
M  V30 7 C -0.835202 -0.117757 -0.108736 0
M  V30 8 C 0.177251 0.862012 -0.495871 0
M  V30 9 N 1.47623 0.305514 -0.786694 0
M  V30 10 S 2.57681 0.411217 0.516063 0
M  V30 11 O 2.31405 1.64662 1.36524 0
M  V30 12 O 3.97571 0.518828 -0.064947 0
M  V30 13 N 2.53731 -0.933571 1.55081 0
M  V30 14 C 2.0725 0.934164 -1.94845 0
M  V30 15 H -1.76186 2.41423 -0.306774 0
M  V30 16 H -3.22427 2.09848 0.6295 0
M  V30 17 H -4.09971 -0.192069 0.824014 0
M  V30 18 H -3.6549 -2.61284 0.90726 0
M  V30 19 H -1.41163 -3.40064 0.338444 0
M  V30 20 H 0.379325 -1.85423 -0.312792 0
M  V30 21 H -0.168883 1.33138 -1.46557 0
M  V30 22 H 0.262008 1.71937 0.199269 0
M  V30 23 H 1.83642 -0.88651 2.30577 0
M  V30 24 H 3.4823 -1.24082 1.88259 0
M  V30 25 H 1.84606 1.99743 -2.043 0
M  V30 26 H 1.67528 0.435008 -2.87261 0
M  V30 27 H 3.17271 0.779758 -1.92493 0
M  V30 END ATOM
M  V30 BEGIN BOND
M  V30 1 1 1 2
M  V30 2 2 2 3
M  V30 3 1 3 4
M  V30 4 2 4 5
M  V30 5 1 5 6
M  V30 6 2 6 7
M  V30 7 1 7 8
M  V30 8 1 8 9
M  V30 9 1 9 10
M  V30 10 2 10 11
M  V30 11 2 10 12
M  V30 12 1 10 13
M  V30 13 1 9 14
M  V30 14 1 7 2
M  V30 15 1 1 15
M  V30 16 1 1 16
M  V30 17 1 3 17
M  V30 18 1 4 18
M  V30 19 1 5 19
M  V30 20 1 6 20
M  V30 21 1 8 21
M  V30 22 1 8 22
M  V30 23 1 13 23
M  V30 24 1 13 24
M  V30 25 1 14 25
M  V30 26 1 14 26
M  V30 27 1 14 27
M  V30 END BOND
M  V30 END CTAB
M  END
