
     RDKit          3D

  0  0  0  0  0  0  0  0  0  0999 V3000
M  V30 BEGIN CTAB
M  V30 COUNTS 48 49 0 0 0
M  V30 BEGIN ATOM
M  V30 1 N -0.0379231 -3.99856 -1.18178 0
M  V30 2 C -0.277383 -2.56557 -1.4056 0
M  V30 3 C -0.537593 -1.95204 -0.0487294 0
M  V30 4 N -0.784151 -0.5437 -0.134611 0
M  V30 5 C 0.272025 0.370003 -0.0266103 0
M  V30 6 O 0.0234191 1.62394 -0.111859 0
M  V30 7 C 1.69862 -0.0182672 0.185739 0
M  V30 8 C 2.57452 1.18744 0.32002 0
M  V30 9 C 3.98106 0.924343 0.52455 0
M  V30 10 C 4.55422 1.06522 1.76709 0
M  V30 11 C 5.90735 0.81342 1.97639 0
M  V30 12 C 6.69363 0.413167 0.913367 0
M  V30 13 C 6.14053 0.26529 -0.34222 0
M  V30 14 C 4.79488 0.524731 -0.507474 0
M  V30 15 N 4.22768 0.377721 -1.77722 0
M  V30 16 C -2.11485 -0.0568137 -0.333825 0
M  V30 17 C -2.88101 0.208014 0.926387 0
M  V30 18 C -4.22465 0.698858 0.538985 0
M  V30 19 C -5.27424 -0.166328 0.335196 0
M  V30 20 C -6.54008 0.294014 -0.0295566 0
M  V30 21 C -6.74567 1.62973 -0.188574 0
M  V30 22 C -5.71019 2.53397 0.00841872 0
M  V30 23 C -4.46222 2.04237 0.37111 0
M  V30 24 H -0.327075 -4.29322 -0.227463 0
M  V30 25 H -0.439212 -4.58312 -1.94646 0
M  V30 26 H -1.2336 -2.52606 -1.98177 0
M  V30 27 H 0.54494 -2.06365 -1.91211 0
M  V30 28 H 0.356095 -2.19842 0.569812 0
M  V30 29 H -1.37148 -2.50674 0.440244 0
M  V30 30 H 1.70278 -0.558739 1.15566 0
M  V30 31 H 1.97984 -0.652577 -0.664647 0
M  V30 32 H 2.15394 1.8546 1.1095 0
M  V30 33 H 2.46727 1.77583 -0.63265 0
M  V30 34 H 3.99808 1.37361 2.63773 0
M  V30 35 H 6.38058 0.916071 2.94059 0
M  V30 36 H 7.76518 0.202535 1.02583 0
M  V30 37 H 6.77571 -0.0488385 -1.15958 0
M  V30 38 H 3.96174 -0.543047 -2.17886 0
M  V30 39 H 4.05796 1.22201 -2.35996 0
M  V30 40 H -2.15746 0.83989 -0.985879 0
M  V30 41 H -2.68155 -0.852048 -0.891493 0
M  V30 42 H -2.39175 0.946677 1.58911 0
M  V30 43 H -3.01538 -0.718678 1.50668 0
M  V30 44 H -5.15381 -1.23894 0.451469 0
M  V30 45 H -7.36091 -0.39785 -0.187589 0
M  V30 46 H -7.72209 2.03498 -0.473817 0
M  V30 47 H -5.90423 3.59547 -0.12634 0
M  V30 48 H -3.66355 2.74933 0.522788 0
M  V30 END ATOM
M  V30 BEGIN BOND
M  V30 1 1 1 2
M  V30 2 1 2 3
M  V30 3 1 3 4
M  V30 4 1 4 5
M  V30 5 2 5 6
M  V30 6 1 5 7
M  V30 7 1 7 8
M  V30 8 1 8 9
M  V30 9 2 9 10
M  V30 10 1 10 11
M  V30 11 2 11 12
M  V30 12 1 12 13
M  V30 13 2 13 14
M  V30 14 1 14 15
M  V30 15 1 4 16
M  V30 16 1 16 17
M  V30 17 1 17 18
M  V30 18 2 18 19
M  V30 19 1 19 20
M  V30 20 2 20 21
M  V30 21 1 21 22
M  V30 22 2 22 23
M  V30 23 1 14 9
M  V30 24 1 23 18
M  V30 25 1 1 24
M  V30 26 1 1 25
M  V30 27 1 2 26
M  V30 28 1 2 27
M  V30 29 1 3 28
M  V30 30 1 3 29
M  V30 31 1 7 30
M  V30 32 1 7 31
M  V30 33 1 8 32
M  V30 34 1 8 33
M  V30 35 1 10 34
M  V30 36 1 11 35
M  V30 37 1 12 36
M  V30 38 1 13 37
M  V30 39 1 15 38
M  V30 40 1 15 39
M  V30 41 1 16 40
M  V30 42 1 16 41
M  V30 43 1 17 42
M  V30 44 1 17 43
M  V30 45 1 19 44
M  V30 46 1 20 45
M  V30 47 1 21 46
M  V30 48 1 22 47
M  V30 49 1 23 48
M  V30 END BOND
M  V30 END CTAB
M  END
