
     RDKit          3D

  0  0  0  0  0  0  0  0  0  0999 V3000
M  V30 BEGIN CTAB
M  V30 COUNTS 41 41 0 0 0
M  V30 BEGIN ATOM
M  V30 1 C 4.64111 -0.757768 -0.504974 0
M  V30 2 C 3.55211 0.129646 -1.10685 0
M  V30 3 C 2.23208 -0.464275 -0.70556 0
M  V30 4 C 2.05711 -0.52227 0.795527 0
M  V30 5 C 1.06499 -1.67253 1.01592 0
M  V30 6 C -0.223519 -1.21568 0.372818 0
M  V30 7 N -0.0856193 0.00252507 -0.364312 0
M  V30 8 C 1.04922 0.232959 -1.27411 0
M  V30 9 C -1.04526 1.02247 -0.238873 0
M  V30 10 O -0.872544 2.11258 -0.86871 0
M  V30 11 C -2.26135 0.935863 0.581557 0 CFG=2
M  V30 12 C -3.48129 0.453866 -0.181665 0
M  V30 13 C -3.38307 -0.88452 -0.792417 0
M  V30 14 C -4.71818 0.491098 0.695381 0
M  V30 15 N -2.60507 2.32434 1.04106 0
M  V30 16 N 3.75374 1.45887 -0.627963 0
M  V30 17 H 5.53573 -0.691405 -1.14835 0
M  V30 18 H 4.25337 -1.79642 -0.488292 0
M  V30 19 H 4.91985 -0.418188 0.517598 0
M  V30 20 H 3.62201 0.0761206 -2.20525 0
M  V30 21 H 2.2266 -1.51833 -1.11082 0
M  V30 22 H 2.98502 -0.679329 1.34053 0
M  V30 23 H 1.51813 0.395829 1.13614 0
M  V30 24 H 1.47944 -2.54085 0.467526 0
M  V30 25 H 0.910781 -1.87157 2.07269 0
M  V30 26 H -0.983739 -1.2159 1.15022 0
M  V30 27 H -0.504571 -2.01234 -0.372351 0
M  V30 28 H 0.761146 -0.162855 -2.27751 0
M  V30 29 H 1.21544 1.33814 -1.35492 0
M  V30 30 H -2.1799 0.348921 1.49933 0
M  V30 31 H -3.67043 1.1986 -1.00737 0
M  V30 32 H -2.63212 -1.00242 -1.59753 0
M  V30 33 H -3.28301 -1.68794 -0.018389 0
M  V30 34 H -4.38439 -1.08279 -1.29113 0
M  V30 35 H -5.33336 1.41442 0.500263 0
M  V30 36 H -5.35256 -0.39485 0.525074 0
M  V30 37 H -4.39897 0.449043 1.7574 0
M  V30 38 H -1.71978 2.62451 1.54636 0
M  V30 39 H -3.31554 2.17721 1.78209 0
M  V30 40 H 4.48877 1.9093 -1.25163 0
M  V30 41 H 4.16762 1.49592 0.338054 0
M  V30 END ATOM
M  V30 BEGIN BOND
M  V30 1 1 1 2
M  V30 2 1 2 3
M  V30 3 1 3 4
M  V30 4 1 4 5
M  V30 5 1 5 6
M  V30 6 1 6 7
M  V30 7 1 7 8
M  V30 8 1 7 9
M  V30 9 2 9 10
M  V30 10 1 9 11
M  V30 11 1 11 12
M  V30 12 1 12 13
M  V30 13 1 12 14
M  V30 14 1 11 15
M  V30 15 1 2 16
M  V30 16 1 8 3
M  V30 17 1 1 17
M  V30 18 1 1 18
M  V30 19 1 1 19
M  V30 20 1 2 20
M  V30 21 1 3 21
M  V30 22 1 4 22
M  V30 23 1 4 23
M  V30 24 1 5 24
M  V30 25 1 5 25
M  V30 26 1 6 26
M  V30 27 1 6 27
M  V30 28 1 8 28
M  V30 29 1 8 29
M  V30 30 1 11 30 CFG=1
M  V30 31 1 12 31
M  V30 32 1 13 32
M  V30 33 1 13 33
M  V30 34 1 13 34
M  V30 35 1 14 35
M  V30 36 1 14 36
M  V30 37 1 14 37
M  V30 38 1 15 38
M  V30 39 1 15 39
M  V30 40 1 16 40
M  V30 41 1 16 41
M  V30 END BOND
M  V30 END CTAB
M  END
