
     RDKit          3D

  0  0  0  0  0  0  0  0  0  0999 V3000
M  V30 BEGIN CTAB
M  V30 COUNTS 44 46 0 0 0
M  V30 BEGIN ATOM
M  V30 1 O -0.952924 -1.3673 -1.50855 0
M  V30 2 C -0.72691 -0.691395 -0.482336 0
M  V30 3 N -1.77348 -0.0338585 0.188528 0
M  V30 4 C -3.13519 -0.0325725 -0.17446 0
M  V30 5 C -3.66651 -0.378791 -1.38525 0
M  V30 6 C -5.03654 -0.366393 -1.63472 0
M  V30 7 C -5.9502 0.00642046 -0.64621 0
M  V30 8 C -5.43841 0.355695 0.567099 0
M  V30 9 C -4.07302 0.338763 0.80265 0
M  V30 10 C -6.56585 0.728249 1.49394 0
M  V30 11 C -7.69461 1.03021 0.507387 0
M  V30 12 C -7.4315 0.0991939 -0.648318 0
M  V30 13 C 0.68545 -0.604374 0.00737874 0
M  V30 14 C 1.5709 -1.3915 -0.901022 0
M  V30 15 S 3.30338 -1.35303 -0.400684 0
M  V30 16 C 4.01535 0.298763 -0.548164 0
M  V30 17 C 5.44269 0.233651 -0.119238 0
M  V30 18 N 5.7518 0.441674 1.17955 0
M  V30 19 C 7.05235 0.379817 1.5498 0
M  V30 20 N 7.47014 0.586624 2.89514 0
M  V30 21 N 8.02314 0.118759 0.658116 0
M  V30 22 C 7.69144 -0.0856377 -0.633224 0
M  V30 23 N 6.41167 -0.027629 -1.01294 0
M  V30 24 N 8.67658 -0.365507 -1.62414 0
M  V30 25 H -1.47763 0.522674 1.06493 0
M  V30 26 H -2.9892 -0.663881 -2.1964 0
M  V30 27 H -5.42951 -0.64217 -2.59123 0
M  V30 28 H -3.68201 0.621461 1.78266 0
M  V30 29 H -6.89375 -0.127313 2.10325 0
M  V30 30 H -6.32013 1.63565 2.08082 0
M  V30 31 H -8.68065 0.753869 0.944174 0
M  V30 32 H -7.62222 2.07496 0.195842 0
M  V30 33 H -7.79661 0.643721 -1.56773 0
M  V30 34 H -7.92761 -0.882467 -0.544612 0
M  V30 35 H 0.731241 -0.946492 1.06101 0
M  V30 36 H 0.932867 0.484121 0.024772 0
M  V30 37 H 1.21102 -2.4319 -0.914928 0
M  V30 38 H 1.51727 -1.0214 -1.93848 0
M  V30 39 H 3.46394 0.978652 0.125005 0
M  V30 40 H 3.94223 0.613266 -1.61688 0
M  V30 41 H 8.15108 1.36983 3.12077 0
M  V30 42 H 7.15433 0.0155599 3.70562 0
M  V30 43 H 9.37857 -1.11774 -1.50126 0
M  V30 44 H 8.68704 0.199752 -2.48747 0
M  V30 END ATOM
M  V30 BEGIN BOND
M  V30 1 2 1 2
M  V30 2 1 2 3
M  V30 3 1 3 4
M  V30 4 2 4 5
M  V30 5 1 5 6
M  V30 6 2 6 7
M  V30 7 1 7 8
M  V30 8 2 8 9
M  V30 9 1 8 10
M  V30 10 1 10 11
M  V30 11 1 11 12
M  V30 12 1 2 13
M  V30 13 1 13 14
M  V30 14 1 14 15
M  V30 15 1 15 16
M  V30 16 1 16 17
M  V30 17 2 17 18
M  V30 18 1 18 19
M  V30 19 1 19 20
M  V30 20 2 19 21
M  V30 21 1 21 22
M  V30 22 2 22 23
M  V30 23 1 22 24
M  V30 24 1 9 4
M  V30 25 1 23 17
M  V30 26 1 12 7
M  V30 27 1 3 25
M  V30 28 1 5 26
M  V30 29 1 6 27
M  V30 30 1 9 28
M  V30 31 1 10 29
M  V30 32 1 10 30
M  V30 33 1 11 31
M  V30 34 1 11 32
M  V30 35 1 12 33
M  V30 36 1 12 34
M  V30 37 1 13 35
M  V30 38 1 13 36
M  V30 39 1 14 37
M  V30 40 1 14 38
M  V30 41 1 16 39
M  V30 42 1 16 40
M  V30 43 1 20 41
M  V30 44 1 20 42
M  V30 45 1 24 43
M  V30 46 1 24 44
M  V30 END BOND
M  V30 END CTAB
M  END
