
     RDKit          3D

  0  0  0  0  0  0  0  0  0  0999 V3000
M  V30 BEGIN CTAB
M  V30 COUNTS 25 25 0 0 0
M  V30 BEGIN ATOM
M  V30 1 N 1.91973 1.92933 -0.0479222 0
M  V30 2 C 0.811891 1.03796 -0.0662935 0
M  V30 3 C -0.464815 1.44652 0.120254 0
M  V30 4 C -1.59162 0.615593 0.112525 0
M  V30 5 C -1.36319 -0.725475 -0.104632 0
M  V30 6 C -0.0404248 -1.16561 -0.300166 0
M  V30 7 C 1.03272 -0.303606 -0.282411 0
M  V30 8 S 2.65261 -0.900001 -0.530125 0
M  V30 9 N 3.67099 -0.573534 0.823809 0
M  V30 10 O 2.61201 -2.37881 -0.728014 0
M  V30 11 O 3.25153 -0.240746 -1.73227 0
M  V30 12 S -2.69944 -1.79533 -0.137781 0
M  V30 13 Cl -1.89413 -3.72324 -0.47221 0
M  V30 14 O -3.60588 -1.66446 -1.32691 0
M  V30 15 O -3.42492 -1.9832 1.14398 0
M  V30 16 C -2.873 1.20311 0.335527 0
M  V30 17 F -2.71757 2.59497 0.503715 0
M  V30 18 F -3.88801 1.05316 -0.527712 0
M  V30 19 F -3.33913 0.827746 1.61059 0
M  V30 20 H 2.24043 2.43241 0.80225 0
M  V30 21 H 2.45359 2.09784 -0.939204 0
M  V30 22 H -0.592336 2.52852 0.289541 0
M  V30 23 H 0.0987357 -2.24126 -0.46969 0
M  V30 24 H 4.59993 -0.206546 0.509733 0
M  V30 25 H 3.15032 0.134664 1.41341 0
M  V30 END ATOM
M  V30 BEGIN BOND
M  V30 1 1 1 2
M  V30 2 2 2 3
M  V30 3 1 3 4
M  V30 4 2 4 5
M  V30 5 1 5 6
M  V30 6 2 6 7
M  V30 7 1 7 8
M  V30 8 1 8 9
M  V30 9 2 8 10
M  V30 10 2 8 11
M  V30 11 1 5 12
M  V30 12 1 12 13
M  V30 13 2 12 14
M  V30 14 2 12 15
M  V30 15 1 4 16
M  V30 16 1 16 17
M  V30 17 1 16 18
M  V30 18 1 16 19
M  V30 19 1 7 2
M  V30 20 1 1 20
M  V30 21 1 1 21
M  V30 22 1 3 22
M  V30 23 1 6 23
M  V30 24 1 9 24
M  V30 25 1 9 25
M  V30 END BOND
M  V30 END CTAB
M  END
