
     RDKit          3D

  0  0  0  0  0  0  0  0  0  0999 V3000
M  V30 BEGIN CTAB
M  V30 COUNTS 48 49 0 0 0
M  V30 BEGIN ATOM
M  V30 1 C -3.77139 1.57234 0.904763 0
M  V30 2 C -3.30398 0.10713 0.805822 0
M  V30 3 C -2.29766 -0.160827 1.92088 0
M  V30 4 N -4.41536 -0.755759 1.01675 0
M  V30 5 C -4.90781 -1.63322 0.234905 0
M  V30 6 N -6.03069 -2.43358 0.574182 0
M  V30 7 N -4.28456 -1.79955 -1.03104 0
M  V30 8 C -3.26033 -1.08482 -1.36585 0
M  V30 9 N -2.67033 -1.28729 -2.64397 0
M  V30 10 N -2.7164 -0.109272 -0.488685 0
M  V30 11 C -1.56494 0.663348 -0.912408 0
M  V30 12 C -0.273037 0.22818 -0.657972 0
M  V30 13 C 0.826701 0.952083 -1.05509 0
M  V30 14 C 2.17731 0.455999 -0.766035 0
M  V30 15 C 2.72768 0.905185 0.535427 0
M  V30 16 C 4.11741 0.388616 0.742154 0
M  V30 17 C 4.11216 -1.114 0.735254 0
M  V30 18 C 5.49579 -1.65777 0.974997 0
M  V30 19 O 5.59923 -2.87285 0.988296 0
M  V30 20 C 6.64106 -0.731146 1.17886 0
M  V30 21 Cl 8.1066 -1.70249 1.43125 0
M  V30 22 C 0.624968 2.13225 -1.71854 0
M  V30 23 C -0.666936 2.60274 -1.99279 0
M  V30 24 C -1.76654 1.84886 -1.57887 0
M  V30 25 H -4.53733 1.61539 1.72861 0
M  V30 26 H -4.3238 1.85605 -0.0140614 0
M  V30 27 H -2.95323 2.24239 1.16862 0
M  V30 28 H -2.82708 -0.312115 2.88422 0
M  V30 29 H -1.60112 0.676113 2.05972 0
M  V30 30 H -1.78016 -1.11732 1.70172 0
M  V30 31 H -6.12281 -2.78427 1.53878 0
M  V30 32 H -6.74837 -2.66567 -0.127461 0
M  V30 33 H -3.27192 -1.48595 -3.45299 0
M  V30 34 H -1.65033 -1.23447 -2.75313 0
M  V30 35 H -0.159938 -0.717037 -0.126995 0
M  V30 36 H 2.87366 0.648969 -1.60086 0
M  V30 37 H 2.08228 -0.671977 -0.730028 0
M  V30 38 H 2.76923 2.0094 0.650995 0
M  V30 39 H 2.10706 0.557319 1.40688 0
M  V30 40 H 4.79058 0.763581 -0.0903306 0
M  V30 41 H 4.53727 0.770044 1.70136 0
M  V30 42 H 3.76917 -1.49111 -0.265114 0
M  V30 43 H 3.41212 -1.46127 1.51578 0
M  V30 44 H 6.71932 -0.104138 0.262087 0
M  V30 45 H 6.47888 -0.0601628 2.04528 0
M  V30 46 H 1.47691 2.69864 -2.02932 0
M  V30 47 H -0.778805 3.53136 -2.51445 0
M  V30 48 H -2.76053 2.22208 -1.79632 0
M  V30 END ATOM
M  V30 BEGIN BOND
M  V30 1 1 1 2
M  V30 2 1 2 3
M  V30 3 1 2 4
M  V30 4 2 4 5
M  V30 5 1 5 6
M  V30 6 1 5 7
M  V30 7 2 7 8
M  V30 8 1 8 9
M  V30 9 1 8 10
M  V30 10 1 10 11
M  V30 11 2 11 12
M  V30 12 1 12 13
M  V30 13 1 13 14
M  V30 14 1 14 15
M  V30 15 1 15 16
M  V30 16 1 16 17
M  V30 17 1 17 18
M  V30 18 2 18 19
M  V30 19 1 18 20
M  V30 20 1 20 21
M  V30 21 2 13 22
M  V30 22 1 22 23
M  V30 23 2 23 24
M  V30 24 1 10 2
M  V30 25 1 24 11
M  V30 26 1 1 25
M  V30 27 1 1 26
M  V30 28 1 1 27
M  V30 29 1 3 28
M  V30 30 1 3 29
M  V30 31 1 3 30
M  V30 32 1 6 31
M  V30 33 1 6 32
M  V30 34 1 9 33
M  V30 35 1 9 34
M  V30 36 1 12 35
M  V30 37 1 14 36
M  V30 38 1 14 37
M  V30 39 1 15 38
M  V30 40 1 15 39
M  V30 41 1 16 40
M  V30 42 1 16 41
M  V30 43 1 17 42
M  V30 44 1 17 43
M  V30 45 1 20 44
M  V30 46 1 20 45
M  V30 47 1 22 46
M  V30 48 1 23 47
M  V30 49 1 24 48
M  V30 END BOND
M  V30 END CTAB
M  END
