
     RDKit          3D

  0  0  0  0  0  0  0  0  0  0999 V3000
M  V30 BEGIN CTAB
M  V30 COUNTS 28 29 0 0 0
M  V30 BEGIN ATOM
M  V30 1 F 1.24349 -0.949641 2.09647 0
M  V30 2 C 1.32393 -0.478573 0.80926 0
M  V30 3 C 0.212628 -0.409589 0.00475812 0
M  V30 4 N -1.03134 -0.840865 0.515742 0
M  V30 5 C -2.27726 -0.775381 -0.212909 0
M  V30 6 C -2.6543 0.660806 -0.489736 0
M  V30 7 C -3.47378 0.635611 0.7833 0
M  V30 8 C -3.4845 -0.87085 0.690145 0
M  V30 9 C 0.394256 0.0763274 -1.26965 0
M  V30 10 C 1.6183 0.484748 -1.75213 0
M  V30 11 C 2.72573 0.411264 -0.936637 0
M  V30 12 C 2.56244 -0.0740861 0.345448 0
M  V30 13 N 3.72299 -0.152021 1.20228 0
M  V30 14 N 4.0197 0.816544 -1.37175 0
M  V30 15 H -1.04003 -1.23739 1.49972 0
M  V30 16 H -2.33583 -1.4491 -1.09336 0
M  V30 17 H -1.81401 1.38975 -0.418433 0
M  V30 18 H -3.31718 0.826932 -1.35467 0
M  V30 19 H -4.46735 1.11739 0.703017 0
M  V30 20 H -2.85652 0.957805 1.63896 0
M  V30 21 H -4.38604 -1.3182 0.233417 0
M  V30 22 H -3.24995 -1.37347 1.67025 0
M  V30 23 H -0.465832 0.130836 -1.91354 0
M  V30 24 H 1.7009 0.858947 -2.76438 0
M  V30 25 H 4.53212 -0.696892 0.842218 0
M  V30 26 H 3.75558 0.308963 2.13038 0
M  V30 27 H 4.3034 0.812581 -2.36844 0
M  V30 28 H 4.73847 1.13755 -0.68248 0
M  V30 END ATOM
M  V30 BEGIN BOND
M  V30 1 1 1 2
M  V30 2 2 2 3
M  V30 3 1 3 4
M  V30 4 1 4 5
M  V30 5 1 5 6
M  V30 6 1 6 7
M  V30 7 1 7 8
M  V30 8 1 3 9
M  V30 9 2 9 10
M  V30 10 1 10 11
M  V30 11 2 11 12
M  V30 12 1 12 13
M  V30 13 1 11 14
M  V30 14 1 12 2
M  V30 15 1 8 5
M  V30 16 1 4 15
M  V30 17 1 5 16
M  V30 18 1 6 17
M  V30 19 1 6 18
M  V30 20 1 7 19
M  V30 21 1 7 20
M  V30 22 1 8 21
M  V30 23 1 8 22
M  V30 24 1 9 23
M  V30 25 1 10 24
M  V30 26 1 13 25
M  V30 27 1 13 26
M  V30 28 1 14 27
M  V30 29 1 14 28
M  V30 END BOND
M  V30 END CTAB
M  END
