
     RDKit          3D

  0  0  0  0  0  0  0  0  0  0999 V3000
M  V30 BEGIN CTAB
M  V30 COUNTS 31 32 0 0 0
M  V30 BEGIN ATOM
M  V30 1 N -5.10046 1.35199 -0.0934699 0
M  V30 2 C -3.73559 0.948855 -0.0776313 0
M  V30 3 C -2.68558 1.83297 -0.121958 0
M  V30 4 C -1.39519 1.34418 -0.101891 0
M  V30 5 C -1.09061 0.0151207 -0.0397229 0
M  V30 6 C -2.13745 -0.879667 0.00510149 0
M  V30 7 C -3.4524 -0.399622 -0.0144956 0
M  V30 8 N -4.53579 -1.32619 0.0319094 0
M  V30 9 F -1.89066 -2.21134 0.067531 0
M  V30 10 N 0.260287 -0.443668 -0.0212204 0
M  V30 11 C 1.30831 0.550206 -0.0707812 0
M  V30 12 C 2.66756 -0.0127754 -0.0722289 0
M  V30 13 C 2.96099 -1.25714 -0.558039 0
M  V30 14 C 4.26974 -1.74366 -0.530147 0
M  V30 15 C 5.28118 -0.974052 -0.0122465 0
M  V30 16 C 5.01115 0.292913 0.487435 0
M  V30 17 C 3.71149 0.739417 0.443958 0
M  V30 18 H -5.56648 1.78316 0.744729 0
M  V30 19 H -5.6666 1.22041 -0.958817 0
M  V30 20 H -2.90941 2.88704 -0.171304 0
M  V30 21 H -0.565743 2.04502 -0.137019 0
M  V30 22 H -5.48056 -1.11387 -0.3222 0
M  V30 23 H -4.37528 -2.2842 0.448598 0
M  V30 24 H 0.514738 -1.44143 0.0285019 0
M  V30 25 H 1.14554 1.17984 -0.994861 0
M  V30 26 H 1.16329 1.26875 0.77887 0
M  V30 27 H 2.19243 -1.88491 -0.97425 0
M  V30 28 H 4.50056 -2.7399 -0.919691 0
M  V30 29 H 6.28426 -1.34766 0.00882037 0
M  V30 30 H 5.81343 0.87456 0.885685 0
M  V30 31 H 3.50286 1.72565 0.833211 0
M  V30 END ATOM
M  V30 BEGIN BOND
M  V30 1 1 1 2
M  V30 2 2 2 3
M  V30 3 1 3 4
M  V30 4 2 4 5
M  V30 5 1 5 6
M  V30 6 2 6 7
M  V30 7 1 7 8
M  V30 8 1 6 9
M  V30 9 1 5 10
M  V30 10 1 10 11
M  V30 11 1 11 12
M  V30 12 2 12 13
M  V30 13 1 13 14
M  V30 14 2 14 15
M  V30 15 1 15 16
M  V30 16 2 16 17
M  V30 17 1 7 2
M  V30 18 1 17 12
M  V30 19 1 1 18
M  V30 20 1 1 19
M  V30 21 1 3 20
M  V30 22 1 4 21
M  V30 23 1 8 22
M  V30 24 1 8 23
M  V30 25 1 10 24
M  V30 26 1 11 25
M  V30 27 1 11 26
M  V30 28 1 13 27
M  V30 29 1 14 28
M  V30 30 1 15 29
M  V30 31 1 16 30
M  V30 32 1 17 31
M  V30 END BOND
M  V30 END CTAB
M  END
