
     RDKit          3D

  0  0  0  0  0  0  0  0  0  0999 V3000
M  V30 BEGIN CTAB
M  V30 COUNTS 28 28 0 0 0
M  V30 BEGIN ATOM
M  V30 1 C 4.12297 -1.28365 -0.368408 0
M  V30 2 C 3.0652 -0.211086 -0.600819 0
M  V30 3 C 1.71221 -0.804107 -0.22536 0
M  V30 4 S 0.478271 0.492266 -0.511614 0
M  V30 5 C -1.1651 -0.0894533 -0.102947 0
M  V30 6 N -1.35996 -1.34031 0.349923 0
M  V30 7 C -2.61211 -1.78355 0.661338 0
M  V30 8 C -3.68947 -0.936372 0.508911 0
M  V30 9 C -3.50658 0.358183 0.0426181 0
M  V30 10 C -2.22545 0.777542 -0.264328 0
M  V30 11 N -2.01715 2.09093 -0.740288 0
M  V30 12 N -4.62723 1.21796 -0.108558 0
M  V30 13 C 3.41154 0.9656 0.275213 0
M  V30 14 H 3.62791 -2.27901 -0.327784 0
M  V30 15 H 4.81444 -1.32493 -1.23799 0
M  V30 16 H 4.64657 -1.11939 0.582892 0
M  V30 17 H 3.09481 0.0663156 -1.67355 0
M  V30 18 H 1.70209 -1.16613 0.806215 0
M  V30 19 H 1.4724 -1.63011 -0.926609 0
M  V30 20 H -2.80159 -2.77786 1.02573 0
M  V30 21 H -4.69948 -1.26346 0.749699 0
M  V30 22 H -2.16623 2.39333 -1.72265 0
M  V30 23 H -1.69289 2.80279 -0.0620515 0
M  V30 24 H -5.0953 1.71015 0.683033 0
M  V30 25 H -5.04133 1.39691 -1.05556 0
M  V30 26 H 4.31017 1.44879 -0.188938 0
M  V30 27 H 2.59742 1.70286 0.365005 0
M  V30 28 H 3.64388 0.585794 1.29416 0
M  V30 END ATOM
M  V30 BEGIN BOND
M  V30 1 1 1 2
M  V30 2 1 2 3
M  V30 3 1 3 4
M  V30 4 1 4 5
M  V30 5 2 5 6
M  V30 6 1 6 7
M  V30 7 2 7 8
M  V30 8 1 8 9
M  V30 9 2 9 10
M  V30 10 1 10 11
M  V30 11 1 9 12
M  V30 12 1 2 13
M  V30 13 1 10 5
M  V30 14 1 1 14
M  V30 15 1 1 15
M  V30 16 1 1 16
M  V30 17 1 2 17
M  V30 18 1 3 18
M  V30 19 1 3 19
M  V30 20 1 7 20
M  V30 21 1 8 21
M  V30 22 1 11 22
M  V30 23 1 11 23
M  V30 24 1 12 24
M  V30 25 1 12 25
M  V30 26 1 13 26
M  V30 27 1 13 27
M  V30 28 1 13 28
M  V30 END BOND
M  V30 END CTAB
M  END
