
     RDKit          3D

  0  0  0  0  0  0  0  0  0  0999 V3000
M  V30 BEGIN CTAB
M  V30 COUNTS 41 41 0 0 0
M  V30 BEGIN ATOM
M  V30 1 N -1.34431 -2.49627 0.459635 0
M  V30 2 C -1.91349 -1.33095 0.96637 0
M  V30 3 C -1.67693 -0.0106754 0.281478 0
M  V30 4 C -2.17533 -0.115529 -1.11043 0
M  V30 5 C -3.25093 0.863589 -1.39982 0
M  V30 6 C -4.36179 0.650113 -0.39623 0
M  V30 7 C -3.88427 0.971105 1.00409 0
M  V30 8 C -2.40196 1.06936 1.09404 0
M  V30 9 C -0.240461 0.372427 0.297584 0
M  V30 10 C 0.763357 -0.417065 -0.359134 0
M  V30 11 O 0.52868 -1.32688 -1.16716 0
M  V30 12 N 2.14621 -0.157299 -0.0795527 0
M  V30 13 C 3.14595 -0.951559 -0.739966 0
M  V30 14 C 4.54235 -0.580416 -0.361713 0
M  V30 15 C 4.79347 0.863111 -0.727574 0
M  V30 16 N 6.16656 1.17494 -0.339027 0
M  V30 17 F 5.4046 -1.43233 -1.01203 0
M  V30 18 F 4.72471 -0.717503 1.01186 0
M  V30 19 H -1.90818 -3.04088 -0.22474 0
M  V30 20 H -0.75913 -3.07128 1.0778 0
M  V30 21 H -3.04684 -1.46769 0.916976 0
M  V30 22 H -1.70659 -1.25493 2.06876 0
M  V30 23 H -1.32539 0.0436558 -1.82168 0
M  V30 24 H -2.61357 -1.1349 -1.30066 0
M  V30 25 H -2.91689 1.91715 -1.43843 0
M  V30 26 H -3.6831 0.639492 -2.39948 0
M  V30 27 H -4.6723 -0.406619 -0.48078 0
M  V30 28 H -5.21936 1.27092 -0.715874 0
M  V30 29 H -4.29945 0.197822 1.67537 0
M  V30 30 H -4.36382 1.92576 1.28808 0
M  V30 31 H -2.05726 2.06396 0.781603 0
M  V30 32 H -2.08969 0.929206 2.13868 0
M  V30 33 H -0.12308 1.47642 -0.0140324 0
M  V30 34 H 0.00950986 0.471809 1.42033 0
M  V30 35 H 2.43688 0.582614 0.581417 0
M  V30 36 H 2.96287 -2.01397 -0.437788 0
M  V30 37 H 3.03278 -0.831849 -1.83636 0
M  V30 38 H 4.07289 1.50415 -0.210699 0
M  V30 39 H 4.71813 0.967848 -1.82379 0
M  V30 40 H 6.19298 2.20894 -0.105342 0
M  V30 41 H 6.39218 0.59421 0.47759 0
M  V30 END ATOM
M  V30 BEGIN BOND
M  V30 1 1 1 2
M  V30 2 1 2 3
M  V30 3 1 3 4
M  V30 4 1 4 5
M  V30 5 1 5 6
M  V30 6 1 6 7
M  V30 7 1 7 8
M  V30 8 1 3 9
M  V30 9 1 9 10
M  V30 10 2 10 11
M  V30 11 1 10 12
M  V30 12 1 12 13
M  V30 13 1 13 14
M  V30 14 1 14 15
M  V30 15 1 15 16
M  V30 16 1 14 17
M  V30 17 1 14 18
M  V30 18 1 8 3
M  V30 19 1 1 19
M  V30 20 1 1 20
M  V30 21 1 2 21
M  V30 22 1 2 22
M  V30 23 1 4 23
M  V30 24 1 4 24
M  V30 25 1 5 25
M  V30 26 1 5 26
M  V30 27 1 6 27
M  V30 28 1 6 28
M  V30 29 1 7 29
M  V30 30 1 7 30
M  V30 31 1 8 31
M  V30 32 1 8 32
M  V30 33 1 9 33
M  V30 34 1 9 34
M  V30 35 1 12 35
M  V30 36 1 13 36
M  V30 37 1 13 37
M  V30 38 1 15 38
M  V30 39 1 15 39
M  V30 40 1 16 40
M  V30 41 1 16 41
M  V30 END BOND
M  V30 END CTAB
M  END
