
     RDKit          3D

  0  0  0  0  0  0  0  0  0  0999 V3000
M  V30 BEGIN CTAB
M  V30 COUNTS 46 48 0 0 0
M  V30 BEGIN ATOM
M  V30 1 O -2.483 1.28461 0.74925 0
M  V30 2 C -2.07238 2.01085 -0.17796 0
M  V30 3 N -0.875222 1.91988 -0.889137 0
M  V30 4 C 0.118145 0.947719 -0.661548 0
M  V30 5 C 1.12413 0.756788 -1.61842 0
M  V30 6 C 2.09898 -0.165897 -1.40058 0
M  V30 7 C 2.15562 -0.944915 -0.261885 0
M  V30 8 C 1.15992 -0.738563 0.659074 0
M  V30 9 C 0.149827 0.195681 0.467883 0
M  V30 10 O 3.16589 -1.8856 -0.0622697 0
M  V30 11 C 4.37553 -1.59369 0.552624 0
M  V30 12 C 4.57051 -1.69639 1.91296 0
M  V30 13 C 5.77908 -1.40316 2.51038 0
M  V30 14 C 6.86105 -0.987593 1.75676 0
M  V30 15 C 6.65559 -0.8883 0.399392 0
M  V30 16 C 5.45272 -1.17876 -0.207786 0
M  V30 17 C 7.80181 -0.444556 -0.461293 0
M  V30 18 C -3.01155 3.15125 -0.583816 0
M  V30 19 S -4.11502 2.46571 -1.84753 0
M  V30 20 C -5.14723 1.2354 -1.09136 0
M  V30 21 N -6.32053 1.57294 -0.547587 0
M  V30 22 C -7.11446 0.6253 0.0339471 0
M  V30 23 N -8.35646 1.00621 0.605675 0
M  V30 24 C -6.70071 -0.697869 0.0608972 0
M  V30 25 C -5.48855 -1.02013 -0.50587 0
M  V30 26 N -4.75473 -0.0372834 -1.06277 0
M  V30 27 N -5.07743 -2.3681 -0.473764 0
M  V30 28 H -0.720249 2.65119 -1.6578 0
M  V30 29 H 1.07311 1.37936 -2.52121 0
M  V30 30 H 2.89195 -0.322567 -2.14401 0
M  V30 31 H 1.16274 -1.32503 1.56505 0
M  V30 32 H -0.581556 0.273495 1.29056 0
M  V30 33 H 3.7436 -2.01872 2.5277 0
M  V30 34 H 5.94137 -1.48079 3.57471 0
M  V30 35 H 7.82636 -0.747502 2.18498 0
M  V30 36 H 5.3199 -1.09035 -1.29087 0
M  V30 37 H 7.50636 0.540653 -0.872169 0
M  V30 38 H 7.91511 -1.21077 -1.25403 0
M  V30 39 H 8.71667 -0.305352 0.130383 0
M  V30 40 H -3.58152 3.47209 0.30505 0
M  V30 41 H -2.37925 3.97164 -0.970149 0
M  V30 42 H -9.0205 1.55802 0.0418055 0
M  V30 43 H -8.62387 0.749047 1.57704 0
M  V30 44 H -7.3316 -1.43488 0.51983 0
M  V30 45 H -4.47586 -2.69522 0.305735 0
M  V30 46 H -5.33427 -3.08584 -1.18793 0
M  V30 END ATOM
M  V30 BEGIN BOND
M  V30 1 2 1 2
M  V30 2 1 2 3
M  V30 3 1 3 4
M  V30 4 2 4 5
M  V30 5 1 5 6
M  V30 6 2 6 7
M  V30 7 1 7 8
M  V30 8 2 8 9
M  V30 9 1 7 10
M  V30 10 1 10 11
M  V30 11 2 11 12
M  V30 12 1 12 13
M  V30 13 2 13 14
M  V30 14 1 14 15
M  V30 15 2 15 16
M  V30 16 1 15 17
M  V30 17 1 2 18
M  V30 18 1 18 19
M  V30 19 1 19 20
M  V30 20 2 20 21
M  V30 21 1 21 22
M  V30 22 1 22 23
M  V30 23 2 22 24
M  V30 24 1 24 25
M  V30 25 2 25 26
M  V30 26 1 25 27
M  V30 27 1 9 4
M  V30 28 1 16 11
M  V30 29 1 26 20
M  V30 30 1 3 28
M  V30 31 1 5 29
M  V30 32 1 6 30
M  V30 33 1 8 31
M  V30 34 1 9 32
M  V30 35 1 12 33
M  V30 36 1 13 34
M  V30 37 1 14 35
M  V30 38 1 16 36
M  V30 39 1 17 37
M  V30 40 1 17 38
M  V30 41 1 17 39
M  V30 42 1 18 40
M  V30 43 1 18 41
M  V30 44 1 23 42
M  V30 45 1 23 43
M  V30 46 1 24 44
M  V30 47 1 27 45
M  V30 48 1 27 46
M  V30 END BOND
M  V30 END CTAB
M  END
