
     RDKit          3D

  0  0  0  0  0  0  0  0  0  0999 V3000
M  V30 BEGIN CTAB
M  V30 COUNTS 36 38 0 0 0
M  V30 BEGIN ATOM
M  V30 1 N -3.34952 -2.97779 -1.07352 0
M  V30 2 C -2.34155 -2.40651 -0.882635 0
M  V30 3 C -1.10883 -1.7342 -0.632516 0
M  V30 4 C 0.122401 -2.36611 -0.843825 0
M  V30 5 N 0.0477576 -3.69214 -1.33015 0
M  V30 6 N 1.27876 -1.7403 -0.596238 0
M  V30 7 C 1.28025 -0.5016 -0.142578 0
M  V30 8 C 0.108938 0.160017 0.0804903 0
M  V30 9 C -1.12305 -0.450684 -0.163482 0
M  V30 10 C -2.35267 0.319197 0.0668059 0
M  V30 11 C -3.26916 0.402653 -0.951461 0
M  V30 12 C -4.44699 1.14389 -0.800065 0
M  V30 13 C -4.68917 1.79611 0.381406 0
M  V30 14 C -3.77274 1.71201 1.39786 0
M  V30 15 C -2.60694 0.977709 1.24765 0
M  V30 16 Cl -1.46189 0.88341 2.58906 0
M  V30 17 O -5.86686 2.53949 0.536132 0
M  V30 18 C 2.52294 0.247196 0.149399 0
M  V30 19 S 2.73191 1.83587 0.731417 0
M  V30 20 C 4.43681 1.87752 0.772282 0
M  V30 21 N 4.75593 0.675 0.338539 0
M  V30 22 C 3.82921 -0.176492 0.0145575 0
M  V30 23 C 4.11047 -1.58222 -0.493821 0
M  V30 24 N 5.33215 2.94044 1.1726 0
M  V30 25 H -0.320526 -3.86786 -2.27102 0
M  V30 26 H 0.368895 -4.46366 -0.721567 0
M  V30 27 H 0.0846244 1.20132 0.454868 0
M  V30 28 H -3.13631 -0.0813206 -1.91186 0
M  V30 29 H -5.16025 1.20188 -1.61094 0
M  V30 30 H -3.93592 2.22262 2.35621 0
M  V30 31 H -6.03603 3.02366 1.4248 0
M  V30 32 H 5.20583 -1.74818 -0.498955 0
M  V30 33 H 3.67514 -2.34038 0.149158 0
M  V30 34 H 3.77073 -1.69761 -1.54721 0
M  V30 35 H 5.60567 3.64914 0.472603 0
M  V30 36 H 5.70996 3.01794 2.13599 0
M  V30 END ATOM
M  V30 BEGIN BOND
M  V30 1 3 1 2
M  V30 2 1 2 3
M  V30 3 2 3 4
M  V30 4 1 4 5
M  V30 5 1 4 6
M  V30 6 2 6 7
M  V30 7 1 7 8
M  V30 8 2 8 9
M  V30 9 1 9 10
M  V30 10 2 10 11
M  V30 11 1 11 12
M  V30 12 2 12 13
M  V30 13 1 13 14
M  V30 14 2 14 15
M  V30 15 1 15 16
M  V30 16 1 13 17
M  V30 17 1 7 18
M  V30 18 1 18 19
M  V30 19 1 19 20
M  V30 20 2 20 21
M  V30 21 1 21 22
M  V30 22 1 22 23
M  V30 23 1 20 24
M  V30 24 1 9 3
M  V30 25 1 15 10
M  V30 26 2 22 18
M  V30 27 1 5 25
M  V30 28 1 5 26
M  V30 29 1 8 27
M  V30 30 1 11 28
M  V30 31 1 12 29
M  V30 32 1 14 30
M  V30 33 1 17 31
M  V30 34 1 23 32
M  V30 35 1 23 33
M  V30 36 1 23 34
M  V30 37 1 24 35
M  V30 38 1 24 36
M  V30 END BOND
M  V30 END CTAB
M  END
