
     RDKit          3D

  0  0  0  0  0  0  0  0  0  0999 V3000
M  V30 BEGIN CTAB
M  V30 COUNTS 40 42 0 0 0
M  V30 BEGIN ATOM
M  V30 1 C -1.08634 -2.70481 -1.78811 0
M  V30 2 C -0.894242 -1.20288 -1.73643 0
M  V30 3 C -1.18542 -0.656372 -0.396696 0
M  V30 4 C -2.43604 -0.468062 0.140337 0
M  V30 5 C -2.23901 0.0579493 1.39254 0
M  V30 6 N -0.918559 0.165725 1.56336 0
M  V30 7 N -0.258409 -0.261968 0.489848 0
M  V30 8 C 1.16127 -0.288734 0.329325 0
M  V30 9 C 1.88029 -1.43666 0.160975 0
M  V30 10 C 3.25305 -1.4141 0.00903842 0
M  V30 11 C 3.9454 -0.205166 0.0241301 0
M  V30 12 N 5.24224 0.138309 -0.0947717 0
M  V30 13 C 5.38481 1.47597 -0.00824962 0
M  V30 14 C 6.65611 2.27499 -0.0894393 0
M  V30 15 N 4.14025 1.95087 0.16749 0
M  V30 16 C 3.23719 0.953702 0.192186 0
M  V30 17 C 1.84821 0.908504 0.344127 0
M  V30 18 C -3.71431 -0.760326 -0.473603 0
M  V30 19 O -3.85128 -1.24398 -1.61124 0
M  V30 20 N -4.92085 -0.48733 0.246785 0
M  V30 21 C -5.47642 0.691598 0.170669 0
M  V30 22 N -4.92791 1.74389 -0.612394 0
M  V30 23 N -6.66483 0.938136 0.888892 0
M  V30 24 H -1.6796 -3.0207 -2.67475 0
M  V30 25 H -0.122122 -3.25708 -1.79625 0
M  V30 26 H -1.63398 -3.00612 -0.849959 0
M  V30 27 H -1.60084 -0.734411 -2.45255 0
M  V30 28 H 0.151486 -1.00981 -2.05499 0
M  V30 29 H -2.9758 0.339585 2.11992 0
M  V30 30 H 1.38142 -2.39067 0.143877 0
M  V30 31 H 3.84299 -2.31619 -0.126292 0
M  V30 32 H 6.01165 -0.549236 -0.233475 0
M  V30 33 H 6.42433 3.28593 -0.533156 0
M  V30 34 H 7.37785 1.79318 -0.746816 0
M  V30 35 H 7.03383 2.48025 0.930064 0
M  V30 36 H 1.35915 1.87297 0.472859 0
M  V30 37 H -5.08572 1.79444 -1.62444 0
M  V30 38 H -4.34646 2.48742 -0.141696 0
M  V30 39 H -7.55252 0.382468 0.72471 0
M  V30 40 H -6.76086 1.67871 1.62957 0
M  V30 END ATOM
M  V30 BEGIN BOND
M  V30 1 1 1 2
M  V30 2 1 2 3
M  V30 3 2 3 4
M  V30 4 1 4 5
M  V30 5 2 5 6
M  V30 6 1 6 7
M  V30 7 1 7 8
M  V30 8 2 8 9
M  V30 9 1 9 10
M  V30 10 2 10 11
M  V30 11 1 11 12
M  V30 12 1 12 13
M  V30 13 1 13 14
M  V30 14 2 13 15
M  V30 15 1 15 16
M  V30 16 2 16 17
M  V30 17 1 4 18
M  V30 18 2 18 19
M  V30 19 1 18 20
M  V30 20 2 20 21
M  V30 21 1 21 22
M  V30 22 1 21 23
M  V30 23 1 7 3
M  V30 24 1 17 8
M  V30 25 1 16 11
M  V30 26 1 1 24
M  V30 27 1 1 25
M  V30 28 1 1 26
M  V30 29 1 2 27
M  V30 30 1 2 28
M  V30 31 1 5 29
M  V30 32 1 9 30
M  V30 33 1 10 31
M  V30 34 1 12 32
M  V30 35 1 14 33
M  V30 36 1 14 34
M  V30 37 1 14 35
M  V30 38 1 17 36
M  V30 39 1 22 37
M  V30 40 1 22 38
M  V30 41 1 23 39
M  V30 42 1 23 40
M  V30 END BOND
M  V30 END CTAB
M  END
