
     RDKit          3D

  0  0  0  0  0  0  0  0  0  0999 V3000
M  V30 BEGIN CTAB
M  V30 COUNTS 20 20 0 0 0
M  V30 BEGIN ATOM
M  V30 1 N 2.63531 -0.228228 0.785057 0
M  V30 2 C 2.25075 1.08642 0.310669 0
M  V30 3 C 1.323 0.852104 -0.886331 0
M  V30 4 C 0.120934 0.0626783 -0.444435 0
M  V30 5 N 0.118876 -1.28039 -0.478318 0
M  V30 6 C -0.955811 -2.0024 -0.0836651 0
M  V30 7 C -2.07613 -1.36616 0.363604 0
M  V30 8 C -2.07328 0.0254814 0.398436 0
M  V30 9 N -0.981329 0.678142 -0.00464544 0
M  V30 10 N -3.23363 0.717412 0.862557 0
M  V30 11 H 2.88436 -0.816767 -0.0592603 0
M  V30 12 H 3.45666 -0.173517 1.41863 0
M  V30 13 H 1.73607 1.68928 1.05198 0
M  V30 14 H 3.18027 1.57798 -0.0390947 0
M  V30 15 H 1.83305 0.403151 -1.7327 0
M  V30 16 H 0.955867 1.85683 -1.17936 0
M  V30 17 H -0.959776 -3.09765 -0.110438 0
M  V30 18 H -2.95586 -1.89463 0.688289 0
M  V30 19 H -4.10357 0.652278 0.304358 0
M  V30 20 H -3.15576 1.25799 1.74239 0
M  V30 END ATOM
M  V30 BEGIN BOND
M  V30 1 1 1 2
M  V30 2 1 2 3
M  V30 3 1 3 4
M  V30 4 2 4 5
M  V30 5 1 5 6
M  V30 6 2 6 7
M  V30 7 1 7 8
M  V30 8 2 8 9
M  V30 9 1 8 10
M  V30 10 1 9 4
M  V30 11 1 1 11
M  V30 12 1 1 12
M  V30 13 1 2 13
M  V30 14 1 2 14
M  V30 15 1 3 15
M  V30 16 1 3 16
M  V30 17 1 6 17
M  V30 18 1 7 18
M  V30 19 1 10 19
M  V30 20 1 10 20
M  V30 END BOND
M  V30 END CTAB
M  END
