
     RDKit          3D

  0  0  0  0  0  0  0  0  0  0999 V3000
M  V30 BEGIN CTAB
M  V30 COUNTS 38 39 0 0 0
M  V30 BEGIN ATOM
M  V30 1 C -7.12756 0.237469 0.377686 0
M  V30 2 C -5.75598 -0.318412 0.0497981 0
M  V30 3 O -5.64461 -1.5505 0.106267 0
M  V30 4 N -4.70719 0.541898 -0.29091 0
M  V30 5 C -3.41456 0.160269 -0.61743 0
M  V30 6 C -2.39732 1.12857 -0.56121 0
M  V30 7 C -1.10177 0.867332 -0.879741 0
M  V30 8 C -0.796405 -0.415789 -1.27366 0
M  V30 9 C -1.72191 -1.41072 -1.3548 0
M  V30 10 C -3.04574 -1.09348 -1.01655 0
M  V30 11 S 0.862509 -0.811522 -1.6972 0
M  V30 12 O 0.886553 -1.81374 -2.81593 0
M  V30 13 O 1.53231 0.434954 -2.2136 0
M  V30 14 N 1.73118 -1.37538 -0.342578 0
M  V30 15 C 2.78436 -0.614848 0.217346 0
M  V30 16 C 3.94514 -1.29779 0.537075 0
M  V30 17 C 4.99014 -0.58403 1.08486 0
M  V30 18 N 6.18787 -1.30195 1.41217 0
M  V30 19 C 4.87977 0.776383 1.30794 0
M  V30 20 C 3.73215 1.47618 0.996642 0
M  V30 21 N 3.60502 2.87472 1.22066 0
M  V30 22 C 2.68584 0.739822 0.44392 0
M  V30 23 H -7.07861 0.591198 1.42696 0
M  V30 24 H -7.36551 1.09152 -0.281831 0
M  V30 25 H -7.90876 -0.532253 0.228918 0
M  V30 26 H -4.92609 1.5944 -0.304761 0
M  V30 27 H -2.67873 2.12136 -0.246435 0
M  V30 28 H -0.340744 1.63465 -0.826527 0
M  V30 29 H -1.48977 -2.43605 -1.66726 0
M  V30 30 H -3.76405 -1.90191 -1.10364 0
M  V30 31 H 1.52028 -2.29653 0.121552 0
M  V30 32 H 4.05207 -2.36656 0.369709 0
M  V30 33 H 6.81676 -1.02061 2.17273 0
M  V30 34 H 6.45535 -2.16491 0.856936 0
M  V30 35 H 5.70372 1.31595 1.73532 0
M  V30 36 H 2.74551 3.25322 1.66263 0
M  V30 37 H 4.34903 3.55781 0.957516 0
M  V30 38 H 1.79976 1.30085 0.207429 0
M  V30 END ATOM
M  V30 BEGIN BOND
M  V30 1 1 1 2
M  V30 2 2 2 3
M  V30 3 1 2 4
M  V30 4 1 4 5
M  V30 5 2 5 6
M  V30 6 1 6 7
M  V30 7 2 7 8
M  V30 8 1 8 9
M  V30 9 2 9 10
M  V30 10 1 8 11
M  V30 11 2 11 12
M  V30 12 2 11 13
M  V30 13 1 11 14
M  V30 14 1 14 15
M  V30 15 2 15 16
M  V30 16 1 16 17
M  V30 17 1 17 18
M  V30 18 2 17 19
M  V30 19 1 19 20
M  V30 20 1 20 21
M  V30 21 2 20 22
M  V30 22 1 10 5
M  V30 23 1 22 15
M  V30 24 1 1 23
M  V30 25 1 1 24
M  V30 26 1 1 25
M  V30 27 1 4 26
M  V30 28 1 6 27
M  V30 29 1 7 28
M  V30 30 1 9 29
M  V30 31 1 10 30
M  V30 32 1 14 31
M  V30 33 1 16 32
M  V30 34 1 18 33
M  V30 35 1 18 34
M  V30 36 1 19 35
M  V30 37 1 21 36
M  V30 38 1 21 37
M  V30 39 1 22 38
M  V30 END BOND
M  V30 END CTAB
M  END
