
     RDKit          3D

  0  0  0  0  0  0  0  0  0  0999 V3000
M  V30 BEGIN CTAB
M  V30 COUNTS 19 19 0 0 0
M  V30 BEGIN ATOM
M  V30 1 N -2.62383 0.716874 0.586488 0
M  V30 2 C -1.74352 -0.374241 0.385023 0
M  V30 3 C -0.334205 0.0455871 0.103355 0
M  V30 4 C 0.00637814 1.38545 0.0586451 0
M  V30 5 C 1.30529 1.7236 -0.201881 0
M  V30 6 Br 1.83559 3.54271 -0.276548 0
M  V30 7 C 2.24143 0.722382 -0.413124 0
M  V30 8 C 1.90692 -0.621299 -0.369733 0
M  V30 9 C 0.605939 -0.942554 -0.108467 0
M  V30 10 N 0.204198 -2.29956 -0.051516 0
M  V30 11 Br 3.24985 -1.92011 -0.670189 0
M  V30 12 H -2.85019 1.28972 -0.226031 0
M  V30 13 H -2.60924 1.16813 1.49884 0
M  V30 14 H -1.75058 -1.01524 1.29348 0
M  V30 15 H -2.12035 -0.968633 -0.492666 0
M  V30 16 H -0.723369 2.162 0.223237 0
M  V30 17 H 3.26356 1.01408 -0.61765 0
M  V30 18 H -0.353109 -2.78096 -0.783109 0
M  V30 19 H 0.489238 -2.84793 0.782368 0
M  V30 END ATOM
M  V30 BEGIN BOND
M  V30 1 1 1 2
M  V30 2 1 2 3
M  V30 3 2 3 4
M  V30 4 1 4 5
M  V30 5 1 5 6
M  V30 6 2 5 7
M  V30 7 1 7 8
M  V30 8 2 8 9
M  V30 9 1 9 10
M  V30 10 1 8 11
M  V30 11 1 9 3
M  V30 12 1 1 12
M  V30 13 1 1 13
M  V30 14 1 2 14
M  V30 15 1 2 15
M  V30 16 1 4 16
M  V30 17 1 7 17
M  V30 18 1 10 18
M  V30 19 1 10 19
M  V30 END BOND
M  V30 END CTAB
M  END
