
     RDKit          3D

  0  0  0  0  0  0  0  0  0  0999 V3000
M  V30 BEGIN CTAB
M  V30 COUNTS 16 17 0 0 0
M  V30 BEGIN ATOM
M  V30 1 N 3.36444 0.592197 -0.261233 0
M  V30 2 C 2.18351 -0.23466 -0.311603 0
M  V30 3 N 2.11579 -1.54274 -0.602947 0
M  V30 4 N 0.830651 -1.90414 -0.534561 0
M  V30 5 C 0.0995835 -0.827411 -0.20225 0
M  V30 6 O 0.952497 0.153482 -0.0780776 0
M  V30 7 C -1.35716 -0.791168 -0.0227094 0
M  V30 8 N -2.20895 -1.81021 -0.155749 0
M  V30 9 O -3.4242 -1.37995 0.0855473 0
M  V30 10 N -3.41811 -0.116939 0.37382 0
M  V30 11 C -2.13623 0.294237 0.317217 0
M  V30 12 N -1.64155 1.59517 0.556734 0
M  V30 13 H 4.18298 0.340387 -0.829027 0
M  V30 14 H 3.39436 1.44212 0.34571 0
M  V30 15 H -2.178 2.2485 1.17081 0
M  V30 16 H -0.75959 1.94113 0.148314 0
M  V30 END ATOM
M  V30 BEGIN BOND
M  V30 1 1 1 2
M  V30 2 2 2 3
M  V30 3 1 3 4
M  V30 4 2 4 5
M  V30 5 1 5 6
M  V30 6 1 5 7
M  V30 7 2 7 8
M  V30 8 1 8 9
M  V30 9 1 9 10
M  V30 10 2 10 11
M  V30 11 1 11 12
M  V30 12 1 6 2
M  V30 13 1 11 7
M  V30 14 1 1 13
M  V30 15 1 1 14
M  V30 16 1 12 15
M  V30 17 1 12 16
M  V30 END BOND
M  V30 END CTAB
M  END
