
     RDKit          3D

  0  0  0  0  0  0  0  0  0  0999 V3000
M  V30 BEGIN CTAB
M  V30 COUNTS 28 29 0 0 0
M  V30 BEGIN ATOM
M  V30 1 N 3.10917 -2.29504 -0.0549271 0
M  V30 2 C 2.51478 -0.997177 0.00202087 0
M  V30 3 N 3.2126 0.123505 0.141572 0
M  V30 4 C 2.55169 1.31634 0.183317 0
M  V30 5 N 3.33156 2.49138 0.324769 0
M  V30 6 N 1.21951 1.36503 0.0833111 0
M  V30 7 C 0.481854 0.218712 -0.0611112 0
M  V30 8 N 1.15466 -0.936826 -0.0976585 0
M  V30 9 C -0.978844 0.25088 -0.187026 0
M  V30 10 C -1.2833 1.3085 -1.26143 0
M  V30 11 C -1.49931 -1.09848 -0.599379 0
M  V30 12 C -2.51293 -1.42044 0.519811 0
M  V30 13 C -3.00139 -0.0107098 0.847451 0
M  V30 14 N -1.69764 0.663449 0.981279 0
M  V30 15 H 3.22119 -2.79827 0.853679 0
M  V30 16 H 3.42677 -2.76004 -0.915347 0
M  V30 17 H 4.3419 2.58527 0.0782747 0
M  V30 18 H 2.88349 3.35459 0.714596 0
M  V30 19 H -0.760474 1.07765 -2.20157 0
M  V30 20 H -0.797991 2.24269 -0.848874 0
M  V30 21 H -2.38125 1.42114 -1.39738 0
M  V30 22 H -2.09667 -1.00736 -1.51165 0
M  V30 23 H -0.728225 -1.89008 -0.671735 0
M  V30 24 H -3.33125 -2.08178 0.15792 0
M  V30 25 H -1.99179 -1.78588 1.39634 0
M  V30 26 H -3.58648 0.0223427 1.74895 0
M  V30 27 H -3.53498 0.353565 -0.0493 0
M  V30 28 H -1.26662 0.287056 1.82409 0
M  V30 END ATOM
M  V30 BEGIN BOND
M  V30 1 1 1 2
M  V30 2 2 2 3
M  V30 3 1 3 4
M  V30 4 1 4 5
M  V30 5 2 4 6
M  V30 6 1 6 7
M  V30 7 2 7 8
M  V30 8 1 7 9
M  V30 9 1 9 10
M  V30 10 1 9 11
M  V30 11 1 11 12
M  V30 12 1 12 13
M  V30 13 1 13 14
M  V30 14 1 8 2
M  V30 15 1 14 9
M  V30 16 1 1 15
M  V30 17 1 1 16
M  V30 18 1 5 17
M  V30 19 1 5 18
M  V30 20 1 10 19
M  V30 21 1 10 20
M  V30 22 1 10 21
M  V30 23 1 11 22
M  V30 24 1 11 23
M  V30 25 1 12 24
M  V30 26 1 12 25
M  V30 27 1 13 26
M  V30 28 1 13 27
M  V30 29 1 14 28
M  V30 END BOND
M  V30 END CTAB
M  END
