
     RDKit          3D

  0  0  0  0  0  0  0  0  0  0999 V3000
M  V30 BEGIN CTAB
M  V30 COUNTS 29 29 0 0 0
M  V30 BEGIN ATOM
M  V30 1 C 3.42637 0.749105 -1.20131 0
M  V30 2 C 3.24663 -0.0449241 0.0610942 0
M  V30 3 C 1.92398 0.227046 0.733265 0
M  V30 4 C 0.747544 -0.100761 -0.122107 0
M  V30 5 N -0.455621 0.198215 0.620874 0
M  V30 6 C -1.72977 -0.0243508 0.0317509 0
M  V30 7 N -1.83605 -0.520328 -1.23574 0
M  V30 8 C -3.05025 -0.72392 -1.77555 0
M  V30 9 N -4.15416 -0.433849 -1.0537 0
M  V30 10 C -4.08347 0.056977 0.20006 0
M  V30 11 O -5.0982 0.332615 0.88656 0
M  V30 12 C -2.8523 0.274406 0.77547 0
M  V30 13 N -2.75128 0.793435 2.10181 0
M  V30 14 N 3.46064 -1.4498 -0.124598 0
M  V30 15 H 4.45981 0.554932 -1.56517 0
M  V30 16 H 2.73585 0.349882 -1.96884 0
M  V30 17 H 3.31221 1.81223 -0.98942 0
M  V30 18 H 4.04085 0.317299 0.775244 0
M  V30 19 H 1.88567 -0.423346 1.64072 0
M  V30 20 H 1.85374 1.28646 1.0313 0
M  V30 21 H 0.759982 -1.18122 -0.442376 0
M  V30 22 H 0.797714 0.473343 -1.07449 0
M  V30 23 H -0.395229 0.574759 1.58278 0
M  V30 24 H -3.17649 -1.11627 -2.77894 0
M  V30 25 H -5.08225 -0.598575 -1.48964 0
M  V30 26 H -3.42948 1.53708 2.44698 0
M  V30 27 H -2.04273 0.492677 2.78294 0
M  V30 28 H 2.98751 -1.81129 -0.968861 0
M  V30 29 H 4.49876 -1.60182 -0.182736 0
M  V30 END ATOM
M  V30 BEGIN BOND
M  V30 1 1 1 2
M  V30 2 1 2 3
M  V30 3 1 3 4
M  V30 4 1 4 5
M  V30 5 1 5 6
M  V30 6 1 6 7
M  V30 7 2 7 8
M  V30 8 1 8 9
M  V30 9 1 9 10
M  V30 10 2 10 11
M  V30 11 1 10 12
M  V30 12 1 12 13
M  V30 13 1 2 14
M  V30 14 2 12 6
M  V30 15 1 1 15
M  V30 16 1 1 16
M  V30 17 1 1 17
M  V30 18 1 2 18
M  V30 19 1 3 19
M  V30 20 1 3 20
M  V30 21 1 4 21
M  V30 22 1 4 22
M  V30 23 1 5 23
M  V30 24 1 8 24
M  V30 25 1 9 25
M  V30 26 1 13 26
M  V30 27 1 13 27
M  V30 28 1 14 28
M  V30 29 1 14 29
M  V30 END BOND
M  V30 END CTAB
M  END
