
     RDKit          3D

  0  0  0  0  0  0  0  0  0  0999 V3000
M  V30 BEGIN CTAB
M  V30 COUNTS 94 95 0 0 0
M  V30 BEGIN ATOM
M  V30 1 C -5.5812 -0.312612 -2.84681 0
M  V30 2 C -4.66641 -0.498297 -1.62428 0
M  V30 3 C -3.4192 0.283954 -1.88781 0
M  V30 4 C -3.70808 1.75508 -2.07382 0
M  V30 5 C -2.26014 -0.00240682 -0.99664 0
M  V30 6 N -1.17006 0.880337 -1.42002 0
M  V30 7 C 0.141542 0.397585 -1.53541 0
M  V30 8 O 0.326526 -0.843518 -1.25078 0
M  V30 9 C 1.33282 1.1713 -1.9454 0 CFG=2
M  V30 10 C 1.52195 1.01681 -3.44 0
M  V30 11 C 0.427442 1.49124 -4.26507 0
M  V30 12 C -0.594997 0.655949 -4.64237 0
M  V30 13 C -1.64299 1.10985 -5.43941 0
M  V30 14 C -1.694 2.40552 -5.87669 0
M  V30 15 O -2.74705 2.83398 -6.66831 0
M  V30 16 C -0.664182 3.26326 -5.5017 0
M  V30 17 C 0.365234 2.78832 -4.70981 0
M  V30 18 N 2.51635 0.601525 -1.27285 0
M  V30 19 C 3.43048 1.411 -0.570173 0
M  V30 20 O 3.18475 2.66627 -0.559583 0
M  V30 21 C 4.61717 0.923805 0.134234 0 CFG=2
M  V30 22 C 5.90928 1.20176 -0.608955 0
M  V30 23 C 5.99888 0.0370877 -1.58486 0
M  V30 24 C 5.34743 -1.09114 -0.789531 0
M  V30 25 N 4.61917 -0.528845 0.296436 0
M  V30 26 C 3.9848 -1.17085 1.36045 0
M  V30 27 O 3.37029 -0.402661 2.18591 0
M  V30 28 C 3.94563 -2.57488 1.62778 0
M  V30 29 N 4.55857 -3.32647 0.511232 0
M  V30 30 C 4.47592 -3.13011 2.88691 0
M  V30 31 C 5.8725 -2.98378 3.27321 0
M  V30 32 C 6.38905 -1.60104 3.52686 0
M  V30 33 N 5.62973 -1.05443 4.66673 0
M  V30 34 C -2.53302 0.182599 0.450994 0
M  V30 35 O -1.9245 1.09825 1.09885 0
M  V30 36 N -3.43347 -0.599088 1.18985 0
M  V30 37 C -3.6814 -0.390341 2.63633 0
M  V30 38 C -5.10504 0.0438754 2.73439 0
M  V30 39 C -5.57869 0.310703 4.13463 0
M  V30 40 C -4.73852 1.40838 4.77366 0
M  V30 41 C -7.01039 0.849562 3.9911 0
M  V30 42 C -3.33444 -1.59783 3.38307 0
M  V30 43 O -3.42065 -1.65989 4.7474 0
M  V30 44 O -2.93948 -2.61985 2.75698 0
M  V30 45 H -4.92155 -0.180371 -3.70955 0
M  V30 46 H -6.20516 0.58651 -2.73515 0
M  V30 47 H -6.19103 -1.22618 -2.99704 0
M  V30 48 H -5.23107 -0.124092 -0.740792 0
M  V30 49 H -4.41767 -1.56887 -1.56587 0
M  V30 50 H -3.09122 -0.0669148 -2.92587 0
M  V30 51 H -3.0026 2.15813 -2.82273 0
M  V30 52 H -4.72429 1.94396 -2.428 0
M  V30 53 H -3.50255 2.28142 -1.11734 0
M  V30 54 H -1.95356 -1.06938 -1.09053 0
M  V30 55 H -1.38889 1.86808 -1.63065 0
M  V30 56 H 1.17636 2.22421 -1.68303 0
M  V30 57 H 2.4516 1.57246 -3.75478 0
M  V30 58 H 1.74818 -0.0592775 -3.6882 0
M  V30 59 H -0.641048 -0.388486 -4.34303 0
M  V30 60 H -2.44663 0.442707 -5.73144 0
M  V30 61 H -2.74217 2.7896 -7.69205 0
M  V30 62 H -0.705248 4.27013 -5.84355 0
M  V30 63 H 1.16482 3.45692 -4.4201 0
M  V30 64 H 2.68532 -0.419777 -1.31612 0
M  V30 65 H 4.69147 1.45266 1.11127 0
M  V30 66 H 5.94985 2.18254 -1.07236 0
M  V30 67 H 6.76203 1.07062 0.0881044 0
M  V30 68 H 7.03689 -0.199239 -1.87892 0
M  V30 69 H 5.44027 0.28581 -2.50402 0
M  V30 70 H 4.73691 -1.73368 -1.46522 0
M  V30 71 H 6.22146 -1.73734 -0.491121 0
M  V30 72 H 2.85447 -2.95384 1.58771 0
M  V30 73 H 5.49247 -3.69558 0.839155 0
M  V30 74 H 3.95926 -4.08823 0.163793 0
M  V30 75 H 4.23806 -4.24536 2.86532 0
M  V30 76 H 3.83726 -2.78931 3.76524 0
M  V30 77 H 5.97723 -3.50002 4.29203 0
M  V30 78 H 6.59361 -3.59033 2.65817 0
M  V30 79 H 6.29758 -0.885267 2.72057 0
M  V30 80 H 7.44067 -1.65165 3.90255 0
M  V30 81 H 6.11073 -1.23061 5.56434 0
M  V30 82 H 5.50541 -0.018752 4.57738 0
M  V30 83 H -3.97429 -1.37843 0.785 0
M  V30 84 H -3.02772 0.484313 2.90903 0
M  V30 85 H -5.23044 1.02176 2.17657 0
M  V30 86 H -5.81106 -0.651695 2.22368 0
M  V30 87 H -5.57113 -0.61286 4.71532 0
M  V30 88 H -4.09349 1.01204 5.58681 0
M  V30 89 H -4.11414 1.91814 4.01858 0
M  V30 90 H -5.42888 2.17275 5.24127 0
M  V30 91 H -7.20885 1.60198 4.7768 0
M  V30 92 H -7.69602 -0.0307863 4.06269 0
M  V30 93 H -7.179 1.30561 3.00117 0
M  V30 94 H -3.98981 -2.40599 5.15819 0
M  V30 END ATOM
M  V30 BEGIN BOND
M  V30 1 1 1 2
M  V30 2 1 2 3
M  V30 3 1 3 4
M  V30 4 1 3 5
M  V30 5 1 5 6
M  V30 6 1 6 7
M  V30 7 2 7 8
M  V30 8 1 7 9
M  V30 9 1 9 10
M  V30 10 1 10 11
M  V30 11 2 11 12
M  V30 12 1 12 13
M  V30 13 2 13 14
M  V30 14 1 14 15
M  V30 15 1 14 16
M  V30 16 2 16 17
M  V30 17 1 9 18
M  V30 18 1 18 19
M  V30 19 2 19 20
M  V30 20 1 19 21
M  V30 21 1 21 22
M  V30 22 1 22 23
M  V30 23 1 23 24
M  V30 24 1 24 25
M  V30 25 1 25 26
M  V30 26 2 26 27
M  V30 27 1 26 28
M  V30 28 1 28 29
M  V30 29 1 28 30
M  V30 30 1 30 31
M  V30 31 1 31 32
M  V30 32 1 32 33
M  V30 33 1 5 34
M  V30 34 2 34 35
M  V30 35 1 34 36
M  V30 36 1 36 37
M  V30 37 1 37 38
M  V30 38 1 38 39
M  V30 39 1 39 40
M  V30 40 1 39 41
M  V30 41 1 37 42
M  V30 42 1 42 43
M  V30 43 2 42 44
M  V30 44 1 17 11
M  V30 45 1 25 21
M  V30 46 1 1 45
M  V30 47 1 1 46
M  V30 48 1 1 47
M  V30 49 1 2 48
M  V30 50 1 2 49
M  V30 51 1 3 50
M  V30 52 1 4 51
M  V30 53 1 4 52
M  V30 54 1 4 53
M  V30 55 1 5 54
M  V30 56 1 6 55
M  V30 57 1 9 56 CFG=3
M  V30 58 1 10 57
M  V30 59 1 10 58
M  V30 60 1 12 59
M  V30 61 1 13 60
M  V30 62 1 15 61
M  V30 63 1 16 62
M  V30 64 1 17 63
M  V30 65 1 18 64
M  V30 66 1 21 65 CFG=1
M  V30 67 1 22 66
M  V30 68 1 22 67
M  V30 69 1 23 68
M  V30 70 1 23 69
M  V30 71 1 24 70
M  V30 72 1 24 71
M  V30 73 1 28 72
M  V30 74 1 29 73
M  V30 75 1 29 74
M  V30 76 1 30 75
M  V30 77 1 30 76
M  V30 78 1 31 77
M  V30 79 1 31 78
M  V30 80 1 32 79
M  V30 81 1 32 80
M  V30 82 1 33 81
M  V30 83 1 33 82
M  V30 84 1 36 83
M  V30 85 1 37 84
M  V30 86 1 38 85
M  V30 87 1 38 86
M  V30 88 1 39 87
M  V30 89 1 40 88
M  V30 90 1 40 89
M  V30 91 1 40 90
M  V30 92 1 41 91
M  V30 93 1 41 92
M  V30 94 1 41 93
M  V30 95 1 43 94
M  V30 END BOND
M  V30 END CTAB
M  END
