
     RDKit          3D

  0  0  0  0  0  0  0  0  0  0999 V3000
M  V30 BEGIN CTAB
M  V30 COUNTS 40 41 0 0 0
M  V30 BEGIN ATOM
M  V30 1 N 2.75553 -2.56052 -0.380217 0
M  V30 2 C 1.49728 -2.40408 -0.968915 0
M  V30 3 C 1.00138 -1.01824 -1.11271 0
M  V30 4 N 0.830643 -0.265794 0.11109 0
M  V30 5 C 2.07759 0.0202927 0.686077 0
M  V30 6 C 2.2371 1.26235 1.48934 0
M  V30 7 C 2.16007 2.54924 0.734347 0
M  V30 8 C 0.77497 2.98072 0.392149 0
M  V30 9 C -0.207864 1.89377 0.771738 0
M  V30 10 C -0.0557888 0.793922 -0.209837 0 CFG=2
M  V30 11 C -1.41338 0.201569 -0.413933 0
M  V30 12 C -2.15704 0.607392 -1.48825 0
M  V30 13 C -3.42327 0.043379 -1.66335 0
M  V30 14 C -3.8962 -0.896958 -0.767483 0
M  V30 15 C -3.10738 -1.26577 0.290137 0
M  V30 16 C -1.84759 -0.726982 0.494733 0
M  V30 17 N -3.56354 -2.2248 1.22012 0
M  V30 18 H 2.79497 -3.2546 0.330536 0
M  V30 19 H 3.57141 -2.2504 -0.825981 0
M  V30 20 H 0.714374 -3.03117 -0.486414 0
M  V30 21 H 1.58253 -2.83118 -2.01278 0
M  V30 22 H 1.59432 -0.41114 -1.84647 0
M  V30 23 H -0.0277101 -1.06602 -1.58413 0
M  V30 24 H 2.29694 -0.829711 1.40949 0
M  V30 25 H 2.93126 -0.0150014 -0.0278759 0
M  V30 26 H 1.66251 1.26275 2.45733 0
M  V30 27 H 3.30992 1.2286 1.87278 0
M  V30 28 H 2.85405 2.49279 -0.116738 0
M  V30 29 H 2.57722 3.34469 1.42768 0
M  V30 30 H 0.448982 3.94043 0.813471 0
M  V30 31 H 0.697552 3.09006 -0.730862 0
M  V30 32 H -1.22469 2.36643 0.599031 0
M  V30 33 H -0.212105 1.62108 1.8231 0
M  V30 34 H 0.313821 1.22804 -1.18861 0
M  V30 35 H -1.84437 1.33021 -2.21646 0
M  V30 36 H -4.06519 0.308483 -2.48222 0
M  V30 37 H -4.87867 -1.33026 -0.911224 0
M  V30 38 H -1.24984 -1.04352 1.34272 0
M  V30 39 H -4.31202 -1.94986 1.89517 0
M  V30 40 H -3.19775 -3.19018 1.27343 0
M  V30 END ATOM
M  V30 BEGIN BOND
M  V30 1 1 1 2
M  V30 2 1 2 3
M  V30 3 1 3 4
M  V30 4 1 4 5
M  V30 5 1 5 6
M  V30 6 1 6 7
M  V30 7 1 7 8
M  V30 8 1 8 9
M  V30 9 1 9 10
M  V30 10 1 10 11
M  V30 11 2 11 12
M  V30 12 1 12 13
M  V30 13 2 13 14
M  V30 14 1 14 15
M  V30 15 2 15 16
M  V30 16 1 15 17
M  V30 17 1 10 4
M  V30 18 1 16 11
M  V30 19 1 1 18
M  V30 20 1 1 19
M  V30 21 1 2 20
M  V30 22 1 2 21
M  V30 23 1 3 22
M  V30 24 1 3 23
M  V30 25 1 5 24
M  V30 26 1 5 25
M  V30 27 1 6 26
M  V30 28 1 6 27
M  V30 29 1 7 28
M  V30 30 1 7 29
M  V30 31 1 8 30
M  V30 32 1 8 31
M  V30 33 1 9 32
M  V30 34 1 9 33
M  V30 35 1 10 34 CFG=3
M  V30 36 1 12 35
M  V30 37 1 13 36
M  V30 38 1 14 37
M  V30 39 1 16 38
M  V30 40 1 17 39
M  V30 41 1 17 40
M  V30 END BOND
M  V30 END CTAB
M  END
