
     RDKit          3D

  0  0  0  0  0  0  0  0  0  0999 V3000
M  V30 BEGIN CTAB
M  V30 COUNTS 22 21 0 0 0
M  V30 BEGIN ATOM
M  V30 1 N 3.5723 -0.747843 0.77904 0
M  V30 2 C 2.62595 -0.183651 -0.15853 0
M  V30 3 C 1.22163 -0.176358 0.40861 0
M  V30 4 O 0.310748 0.366825 -0.494241 0
M  V30 5 C -0.963098 0.354062 0.0663597 0
M  V30 6 C -1.91077 -0.503632 -0.731747 0
M  V30 7 N -3.22974 -0.551446 -0.200875 0
M  V30 8 C -1.42146 1.76623 0.213807 0
M  V30 9 H 4.53807 -0.541357 0.443508 0
M  V30 10 H 3.43289 -1.76037 0.925343 0
M  V30 11 H 2.92345 0.872324 -0.355134 0
M  V30 12 H 2.68602 -0.714182 -1.11929 0
M  V30 13 H 1.19207 0.438437 1.32284 0
M  V30 14 H 0.932784 -1.23429 0.570517 0
M  V30 15 H -0.924306 -0.0895707 1.09748 0
M  V30 16 H -1.96201 -0.0902711 -1.76654 0
M  V30 17 H -1.52034 -1.53694 -0.799187 0
M  V30 18 H -3.28237 -0.673118 0.827473 0
M  V30 19 H -3.70488 -1.4113 -0.608105 0
M  V30 20 H -1.6548 2.2632 -0.744167 0
M  V30 21 H -2.26634 1.80851 0.93191 0
M  V30 22 H -0.595785 2.34474 0.678019 0
M  V30 END ATOM
M  V30 BEGIN BOND
M  V30 1 1 1 2
M  V30 2 1 2 3
M  V30 3 1 3 4
M  V30 4 1 4 5
M  V30 5 1 5 6
M  V30 6 1 6 7
M  V30 7 1 5 8
M  V30 8 1 1 9
M  V30 9 1 1 10
M  V30 10 1 2 11
M  V30 11 1 2 12
M  V30 12 1 3 13
M  V30 13 1 3 14
M  V30 14 1 5 15
M  V30 15 1 6 16
M  V30 16 1 6 17
M  V30 17 1 7 18
M  V30 18 1 7 19
M  V30 19 1 8 20
M  V30 20 1 8 21
M  V30 21 1 8 22
M  V30 END BOND
M  V30 END CTAB
M  END
