
     RDKit          3D

  0  0  0  0  0  0  0  0  0  0999 V3000
M  V30 BEGIN CTAB
M  V30 COUNTS 22 22 0 0 0
M  V30 BEGIN ATOM
M  V30 1 C 2.89445 -0.0390214 0.161113 0
M  V30 2 C 1.44369 -0.31651 0.0492224 0
M  V30 3 C 0.499653 0.651538 -0.160155 0
M  V30 4 N 0.935312 2.00223 -0.277263 0
M  V30 5 C -0.838741 0.346594 -0.257562 0
M  V30 6 C -1.87315 1.40882 -0.487176 0
M  V30 7 C -1.30166 -0.951414 -0.14946 0
M  V30 8 N -2.67585 -1.27988 -0.247648 0
M  V30 9 C -0.325099 -1.9237 0.0636748 0
M  V30 10 C 1.01293 -1.62233 0.161464 0
M  V30 11 H 3.24616 -0.378438 1.16045 0
M  V30 12 H 3.4924 -0.639603 -0.579423 0
M  V30 13 H 3.06615 1.03604 0.0133167 0
M  V30 14 H 1.20939 2.57212 0.552229 0
M  V30 15 H 0.991066 2.45985 -1.2111 0
M  V30 16 H -2.59037 1.31522 0.354515 0
M  V30 17 H -1.38759 2.39083 -0.510507 0
M  V30 18 H -2.45337 1.17562 -1.40863 0
M  V30 19 H -3.43617 -0.707359 0.16611 0
M  V30 20 H -2.942 -2.14121 -0.761688 0
M  V30 21 H -0.701708 -2.94396 0.147398 0
M  V30 22 H 1.73451 -2.41542 0.327828 0
M  V30 END ATOM
M  V30 BEGIN BOND
M  V30 1 1 1 2
M  V30 2 2 2 3
M  V30 3 1 3 4
M  V30 4 1 3 5
M  V30 5 1 5 6
M  V30 6 2 5 7
M  V30 7 1 7 8
M  V30 8 1 7 9
M  V30 9 2 9 10
M  V30 10 1 10 2
M  V30 11 1 1 11
M  V30 12 1 1 12
M  V30 13 1 1 13
M  V30 14 1 4 14
M  V30 15 1 4 15
M  V30 16 1 6 16
M  V30 17 1 6 17
M  V30 18 1 6 18
M  V30 19 1 8 19
M  V30 20 1 8 20
M  V30 21 1 9 21
M  V30 22 1 10 22
M  V30 END BOND
M  V30 END CTAB
M  END
