
     RDKit          3D

  0  0  0  0  0  0  0  0  0  0999 V3000
M  V30 BEGIN CTAB
M  V30 COUNTS 36 37 0 0 0
M  V30 BEGIN ATOM
M  V30 1 N -2.42038 1.11115 2.16184 0
M  V30 2 C -3.07658 0.890861 0.888702 0
M  V30 3 C -3.47058 -0.551313 0.705953 0
M  V30 4 C -3.19017 -0.925719 -0.725685 0
M  V30 5 C -1.67102 -0.875677 -0.984627 0
M  V30 6 N -1.253 0.468921 -0.697126 0
M  V30 7 C -2.25484 1.40992 -0.269222 0
M  V30 8 C 0.081652 0.875422 -0.822013 0
M  V30 9 O 0.332828 2.10845 -0.532973 0
M  V30 10 C 1.24585 0.109998 -1.23346 0
M  V30 11 C 2.37844 0.0568891 -0.307481 0
M  V30 12 C 3.50456 -0.633744 -0.722087 0
M  V30 13 C 4.62748 -0.751528 0.0773295 0
M  V30 14 C 4.64896 -0.171927 1.32876 0
M  V30 15 C 3.51017 0.524079 1.74323 0
M  V30 16 C 2.38834 0.638541 0.938043 0
M  V30 17 N 0.967095 -1.23198 -1.72104 0
M  V30 18 H -1.40686 1.13964 1.99317 0
M  V30 19 H -2.74326 0.38102 2.81773 0
M  V30 20 H -4.01446 1.48288 0.903279 0
M  V30 21 H -4.5157 -0.757037 0.94546 0
M  V30 22 H -2.76491 -1.15194 1.34034 0
M  V30 23 H -3.65699 -0.261093 -1.46226 0
M  V30 24 H -3.50375 -1.9883 -0.845957 0
M  V30 25 H -1.16687 -1.65063 -0.370971 0
M  V30 26 H -1.57069 -1.17882 -2.04049 0
M  V30 27 H -2.97428 1.62508 -1.09261 0
M  V30 28 H -1.77266 2.3341 0.0694876 0
M  V30 29 H 1.65021 0.635085 -2.15817 0
M  V30 30 H 3.56301 -1.11798 -1.69621 0
M  V30 31 H 5.51494 -1.28703 -0.230805 0
M  V30 32 H 5.52261 -0.251727 1.97565 0
M  V30 33 H 3.57039 0.961577 2.72898 0
M  V30 34 H 1.54948 1.18864 1.33485 0
M  V30 35 H 0.808928 -1.28227 -2.73151 0
M  V30 36 H 1.56205 -1.95546 -1.3081 0
M  V30 END ATOM
M  V30 BEGIN BOND
M  V30 1 1 1 2
M  V30 2 1 2 3
M  V30 3 1 3 4
M  V30 4 1 4 5
M  V30 5 1 5 6
M  V30 6 1 6 7
M  V30 7 1 6 8
M  V30 8 2 8 9
M  V30 9 1 8 10
M  V30 10 1 10 11
M  V30 11 2 11 12
M  V30 12 1 12 13
M  V30 13 2 13 14
M  V30 14 1 14 15
M  V30 15 2 15 16
M  V30 16 1 10 17
M  V30 17 1 7 2
M  V30 18 1 16 11
M  V30 19 1 1 18
M  V30 20 1 1 19
M  V30 21 1 2 20
M  V30 22 1 3 21
M  V30 23 1 3 22
M  V30 24 1 4 23
M  V30 25 1 4 24
M  V30 26 1 5 25
M  V30 27 1 5 26
M  V30 28 1 7 27
M  V30 29 1 7 28
M  V30 30 1 10 29
M  V30 31 1 12 30
M  V30 32 1 13 31
M  V30 33 1 14 32
M  V30 34 1 15 33
M  V30 35 1 16 34
M  V30 36 1 17 35
M  V30 37 1 17 36
M  V30 END BOND
M  V30 END CTAB
M  END
