
     RDKit          3D

  0  0  0  0  0  0  0  0  0  0999 V3000
M  V30 BEGIN CTAB
M  V30 COUNTS 32 33 0 0 0
M  V30 BEGIN ATOM
M  V30 1 N 4.85555 -1.20066 0.177297 0
M  V30 2 C 3.45455 -1.01641 0.0483862 0
M  V30 3 C 2.99036 0.237617 -0.288753 0
M  V30 4 C 1.60698 0.379377 -0.404647 0
M  V30 5 C 0.723505 -0.642376 -0.203415 0
M  V30 6 C 1.22407 -1.88784 0.13348 0
M  V30 7 C 2.58658 -2.08494 0.261751 0
M  V30 8 C -0.719008 -0.481494 -0.327077 0
M  V30 9 C -1.3534 0.690919 -0.0226079 0
M  V30 10 C -2.71002 0.895451 -0.120971 0
M  V30 11 C -3.36685 2.13806 0.203017 0
M  V30 12 O -4.73434 2.26961 0.0794864 0
M  V30 13 O -2.6999 3.11532 0.60196 0
M  V30 14 C -3.45608 -0.199946 -0.568108 0
M  V30 15 N -4.86703 -0.0784167 -0.699092 0
M  V30 16 C -2.85525 -1.39809 -0.88472 0
M  V30 17 C -1.49462 -1.53488 -0.763999 0
M  V30 18 C 3.90575 1.32762 -0.504236 0
M  V30 19 O 3.52105 2.61144 -0.843735 0
M  V30 20 O 5.13961 1.12398 -0.38118 0
M  V30 21 H 5.28558 -1.21482 1.11564 0
M  V30 22 H 5.42087 -1.31646 -0.672696 0
M  V30 23 H 1.2121 1.3565 -0.668389 0
M  V30 24 H 0.562527 -2.73528 0.304509 0
M  V30 25 H 3.02556 -3.0444 0.52399 0
M  V30 26 H -0.76529 1.53173 0.322836 0
M  V30 27 H -5.20316 2.51617 -0.782747 0
M  V30 28 H -5.51146 -0.319515 0.0831818 0
M  V30 29 H -5.27394 0.258918 -1.5968 0
M  V30 30 H -3.41429 -2.26721 -1.23499 0
M  V30 31 H -0.97741 -2.47386 -1.00718 0
M  V30 32 H 3.8874 3.44387 -0.39277 0
M  V30 END ATOM
M  V30 BEGIN BOND
M  V30 1 1 1 2
M  V30 2 2 2 3
M  V30 3 1 3 4
M  V30 4 2 4 5
M  V30 5 1 5 6
M  V30 6 2 6 7
M  V30 7 1 5 8
M  V30 8 2 8 9
M  V30 9 1 9 10
M  V30 10 1 10 11
M  V30 11 1 11 12
M  V30 12 2 11 13
M  V30 13 2 10 14
M  V30 14 1 14 15
M  V30 15 1 14 16
M  V30 16 2 16 17
M  V30 17 1 3 18
M  V30 18 1 18 19
M  V30 19 2 18 20
M  V30 20 1 7 2
M  V30 21 1 17 8
M  V30 22 1 1 21
M  V30 23 1 1 22
M  V30 24 1 4 23
M  V30 25 1 6 24
M  V30 26 1 7 25
M  V30 27 1 9 26
M  V30 28 1 12 27
M  V30 29 1 15 28
M  V30 30 1 15 29
M  V30 31 1 16 30
M  V30 32 1 17 31
M  V30 33 1 19 32
M  V30 END BOND
M  V30 END CTAB
M  END
