
     RDKit          3D

  0  0  0  0  0  0  0  0  0  0999 V3000
M  V30 BEGIN CTAB
M  V30 COUNTS 30 31 0 0 0
M  V30 BEGIN ATOM
M  V30 1 C -4.55525 -0.224285 1.29851 0
M  V30 2 O -3.34582 -0.743904 0.826969 0
M  V30 3 C -2.49648 0.0257299 0.0296137 0
M  V30 4 C -2.85084 1.29837 -0.292623 0
M  V30 5 C -2.00501 2.04862 -1.08003 0
M  V30 6 C -0.812815 1.52128 -1.53861 0
M  V30 7 C -0.440157 0.235632 -1.22135 0
M  V30 8 C 0.824383 -0.320359 -1.71172 0
M  V30 9 N 1.95683 -0.0672661 -0.844432 0
M  V30 10 N 2.75006 0.992177 -0.91219 0
M  V30 11 C 3.69153 0.883202 0.0558342 0
M  V30 12 C 3.48843 -0.284239 0.76079 0
M  V30 13 N 4.25887 -0.763292 1.85217 0
M  V30 14 C 2.36743 -0.859157 0.148797 0
M  V30 15 N 1.83755 -2.0845 0.588861 0
M  V30 16 C -1.28753 -0.511975 -0.434226 0
M  V30 17 H -5.13519 0.336747 0.542896 0
M  V30 18 H -4.41737 0.445321 2.17043 0
M  V30 19 H -5.18392 -1.07178 1.63716 0
M  V30 20 H -3.77593 1.77344 0.0361775 0
M  V30 21 H -2.28253 3.08029 -1.34686 0
M  V30 22 H -0.146297 2.11448 -2.15992 0
M  V30 23 H 0.669552 -1.42009 -1.87064 0
M  V30 24 H 1.05093 0.1218 -2.71568 0
M  V30 25 H 4.49292 1.59481 0.262666 0
M  V30 26 H 4.17774 -0.366167 2.82219 0
M  V30 27 H 4.95054 -1.54334 1.73691 0
M  V30 28 H 2.07944 -2.96751 0.0991952 0
M  V30 29 H 1.1983 -2.13771 1.40508 0
M  V30 30 H -1.05935 -1.53182 -0.145956 0
M  V30 END ATOM
M  V30 BEGIN BOND
M  V30 1 1 1 2
M  V30 2 1 2 3
M  V30 3 2 3 4
M  V30 4 1 4 5
M  V30 5 2 5 6
M  V30 6 1 6 7
M  V30 7 1 7 8
M  V30 8 1 8 9
M  V30 9 1 9 10
M  V30 10 2 10 11
M  V30 11 1 11 12
M  V30 12 1 12 13
M  V30 13 2 12 14
M  V30 14 1 14 15
M  V30 15 2 7 16
M  V30 16 1 16 3
M  V30 17 1 14 9
M  V30 18 1 1 17
M  V30 19 1 1 18
M  V30 20 1 1 19
M  V30 21 1 4 20
M  V30 22 1 5 21
M  V30 23 1 6 22
M  V30 24 1 8 23
M  V30 25 1 8 24
M  V30 26 1 11 25
M  V30 27 1 13 26
M  V30 28 1 13 27
M  V30 29 1 15 28
M  V30 30 1 15 29
M  V30 31 1 16 30
M  V30 END BOND
M  V30 END CTAB
M  END
