
     RDKit          3D

  0  0  0  0  0  0  0  0  0  0999 V3000
M  V30 BEGIN CTAB
M  V30 COUNTS 62 66 0 0 0
M  V30 BEGIN ATOM
M  V30 1 C 7.30571 2.72724 -2.25233 0
M  V30 2 C 8.50724 2.58626 -1.37721 0
M  V30 3 C 8.97787 1.17141 -1.35217 0
M  V30 4 C 7.9616 0.22397 -0.846909 0
M  V30 5 C 8.18034 -1.12508 -0.714935 0
M  V30 6 C 7.24264 -2.01768 -0.251702 0
M  V30 7 C 5.96402 -1.54344 0.119166 0
M  V30 8 C 5.77794 -0.198633 -0.02341 0
M  V30 9 N 6.74639 0.661736 -0.492079 0
M  V30 10 S 4.16559 0.014744 0.497333 0
M  V30 11 C 3.77478 -1.60051 0.879386 0
M  V30 12 C 4.93358 -2.27135 0.585011 0
M  V30 13 N 4.9719 -3.71546 0.794688 0
M  V30 14 C 2.51478 -2.15074 1.37961 0
M  V30 15 O 2.44593 -3.40282 1.57112 0
M  V30 16 C 1.33559 -1.37134 1.67026 0
M  V30 17 C 0.0955657 -2.00488 1.51291 0
M  V30 18 C -1.0777 -1.33637 1.77897 0
M  V30 19 C -1.10108 -0.041167 2.20285 0
M  V30 20 C 0.138925 0.577642 2.35655 0
M  V30 21 C 1.32231 -0.0675148 2.09861 0
M  V30 22 C -2.27311 0.742094 2.47112 0
M  V30 23 O -2.13181 1.70543 3.3062 0
M  V30 24 C -3.59348 0.543673 1.88308 0
M  V30 25 S -4.07297 -0.597673 0.716233 0
M  V30 26 C -5.71439 -0.164761 0.548609 0
M  V30 27 C -5.83955 0.87724 1.42547 0
M  V30 28 C -4.74557 1.24596 2.11653 0
M  V30 29 N -4.71568 2.33373 3.08514 0
M  V30 30 C -7.13029 1.44762 1.49704 0
M  V30 31 C -8.13338 0.936343 0.710876 0
M  V30 32 C -7.98504 -0.112132 -0.164681 0
M  V30 33 N -6.75275 -0.64172 -0.219585 0
M  V30 34 C -9.04425 -0.676465 -1.01295 0
M  V30 35 C -9.10786 0.0193343 -2.35275 0
M  V30 36 C -7.75637 -0.169668 -3.02912 0
M  V30 37 H 6.43885 2.99899 -1.59168 0
M  V30 38 H 7.40938 3.59185 -2.94507 0
M  V30 39 H 7.12829 1.79598 -2.79211 0
M  V30 40 H 9.33495 3.20925 -1.78339 0
M  V30 41 H 8.34312 2.94386 -0.348048 0
M  V30 42 H 9.93399 1.12895 -0.772987 0
M  V30 43 H 9.27324 0.916768 -2.41264 0
M  V30 44 H 9.1494 -1.51052 -0.993394 0
M  V30 45 H 7.49874 -3.07009 -0.177031 0
M  V30 46 H 4.89667 -4.13364 1.73541 0
M  V30 47 H 5.07835 -4.34303 -0.0235713 0
M  V30 48 H 0.0596158 -3.02836 1.17854 0
M  V30 49 H -2.04078 -1.84915 1.66994 0
M  V30 50 H 0.167783 1.62771 2.6992 0
M  V30 51 H 2.27092 0.450215 2.24503 0
M  V30 52 H -4.74285 2.03763 4.07901 0
M  V30 53 H -4.67135 3.3202 2.83541 0
M  V30 54 H -7.36671 2.27169 2.14486 0
M  V30 55 H -9.11215 1.38177 0.777834 0
M  V30 56 H -10.0573 -0.603136 -0.560686 0
M  V30 57 H -8.83642 -1.74059 -1.16567 0
M  V30 58 H -9.91091 -0.38272 -2.98754 0
M  V30 59 H -9.20201 1.11809 -2.17149 0
M  V30 60 H -7.39118 -1.22082 -2.88583 0
M  V30 61 H -7.02116 0.505236 -2.5636 0
M  V30 62 H -7.81789 -0.0211308 -4.12614 0
M  V30 END ATOM
M  V30 BEGIN BOND
M  V30 1 1 1 2
M  V30 2 1 2 3
M  V30 3 1 3 4
M  V30 4 2 4 5
M  V30 5 1 5 6
M  V30 6 2 6 7
M  V30 7 1 7 8
M  V30 8 2 8 9
M  V30 9 1 8 10
M  V30 10 1 10 11
M  V30 11 2 11 12
M  V30 12 1 12 13
M  V30 13 1 11 14
M  V30 14 2 14 15
M  V30 15 1 14 16
M  V30 16 2 16 17
M  V30 17 1 17 18
M  V30 18 2 18 19
M  V30 19 1 19 20
M  V30 20 2 20 21
M  V30 21 1 19 22
M  V30 22 2 22 23
M  V30 23 1 22 24
M  V30 24 1 24 25
M  V30 25 1 25 26
M  V30 26 2 26 27
M  V30 27 1 27 28
M  V30 28 1 28 29
M  V30 29 1 27 30
M  V30 30 2 30 31
M  V30 31 1 31 32
M  V30 32 2 32 33
M  V30 33 1 32 34
M  V30 34 1 34 35
M  V30 35 1 35 36
M  V30 36 1 9 4
M  V30 37 1 21 16
M  V30 38 2 28 24
M  V30 39 1 12 7
M  V30 40 1 33 26
M  V30 41 1 1 37
M  V30 42 1 1 38
M  V30 43 1 1 39
M  V30 44 1 2 40
M  V30 45 1 2 41
M  V30 46 1 3 42
M  V30 47 1 3 43
M  V30 48 1 5 44
M  V30 49 1 6 45
M  V30 50 1 13 46
M  V30 51 1 13 47
M  V30 52 1 17 48
M  V30 53 1 18 49
M  V30 54 1 20 50
M  V30 55 1 21 51
M  V30 56 1 29 52
M  V30 57 1 29 53
M  V30 58 1 30 54
M  V30 59 1 31 55
M  V30 60 1 34 56
M  V30 61 1 34 57
M  V30 62 1 35 58
M  V30 63 1 35 59
M  V30 64 1 36 60
M  V30 65 1 36 61
M  V30 66 1 36 62
M  V30 END BOND
M  V30 END CTAB
M  END
