
     RDKit          3D

  0  0  0  0  0  0  0  0  0  0999 V3000
M  V30 BEGIN CTAB
M  V30 COUNTS 25 25 0 0 0
M  V30 BEGIN ATOM
M  V30 1 C 3.54788 -1.30806 0.0425571 0
M  V30 2 C 2.50084 -0.284424 -0.361735 0
M  V30 3 C 2.26547 0.594485 0.864401 0
M  V30 4 S 1.03382 1.86217 0.514288 0
M  V30 5 C -0.562398 1.09427 0.247151 0
M  V30 6 N -0.732218 -0.252318 0.323367 0
M  V30 7 C -1.92639 -0.833151 0.12055 0
M  V30 8 N -2.084 -2.24179 0.206991 0
M  V30 9 C -3.03825 -0.0812261 -0.175779 0
M  V30 10 C -2.87793 1.29659 -0.256443 0
M  V30 11 N -1.65957 1.81775 -0.0436152 0
M  V30 12 N -4.016 2.08496 -0.562036 0
M  V30 13 O 3.03977 0.568411 -1.33868 0
M  V30 14 H 4.53568 -0.780748 0.122211 0
M  V30 15 H 3.34731 -1.74998 1.03552 0
M  V30 16 H 3.57937 -2.10829 -0.74749 0
M  V30 17 H 1.57663 -0.771398 -0.706997 0
M  V30 18 H 3.24893 1.05001 1.09233 0
M  V30 19 H 1.97272 -0.0656543 1.72048 0
M  V30 20 H -2.08553 -2.67704 1.15468 0
M  V30 21 H -2.19808 -2.87206 -0.60492 0
M  V30 22 H -4.02234 -0.492036 -0.348881 0
M  V30 23 H -4.94655 1.887 -0.148587 0
M  V30 24 H -3.93119 2.88541 -1.21534 0
M  V30 25 H 3.43204 1.37712 -0.934019 0
M  V30 END ATOM
M  V30 BEGIN BOND
M  V30 1 1 1 2
M  V30 2 1 2 3
M  V30 3 1 3 4
M  V30 4 1 4 5
M  V30 5 2 5 6
M  V30 6 1 6 7
M  V30 7 1 7 8
M  V30 8 2 7 9
M  V30 9 1 9 10
M  V30 10 2 10 11
M  V30 11 1 10 12
M  V30 12 1 2 13
M  V30 13 1 11 5
M  V30 14 1 1 14
M  V30 15 1 1 15
M  V30 16 1 1 16
M  V30 17 1 2 17
M  V30 18 1 3 18
M  V30 19 1 3 19
M  V30 20 1 8 20
M  V30 21 1 8 21
M  V30 22 1 9 22
M  V30 23 1 12 23
M  V30 24 1 12 24
M  V30 25 1 13 25
M  V30 END BOND
M  V30 END CTAB
M  END
