
     RDKit          3D

  0  0  0  0  0  0  0  0  0  0999 V3000
M  V30 BEGIN CTAB
M  V30 COUNTS 37 37 0 0 0
M  V30 BEGIN ATOM
M  V30 1 N -0.859313 -2.84599 1.95454 0
M  V30 2 C -0.157955 -1.78936 1.20899 0
M  V30 3 C -1.1183 -0.85295 0.587921 0
M  V30 4 C -2.47796 -1.11917 0.776591 0
M  V30 5 C -3.4228 -0.297953 0.218823 0
M  V30 6 C -3.02816 0.786354 -0.525377 0
M  V30 7 C -1.69007 1.03546 -0.701983 0
M  V30 8 C -0.701388 0.221802 -0.149339 0
M  V30 9 C 0.71232 0.517645 -0.343829 0
M  V30 10 O 0.995955 1.52767 -1.07311 0
M  V30 11 O 1.76488 -0.166743 0.168964 0
M  V30 12 C 3.12064 0.111312 -0.0126858 0
M  V30 13 C 3.89136 -0.954919 0.773159 0
M  V30 14 C 3.5621 -0.0332113 -1.45542 0
M  V30 15 C 3.54849 1.44368 0.547689 0
M  V30 16 C -4.03221 1.655 -1.11559 0
M  V30 17 N -3.68841 2.67792 -1.81762 0
M  V30 18 N -5.43063 1.41794 -0.946788 0
M  V30 19 H -1.27444 -3.47259 1.20082 0
M  V30 20 H -0.0760612 -3.42844 2.37884 0
M  V30 21 H 0.432625 -1.23156 1.95624 0
M  V30 22 H 0.561545 -2.24038 0.496249 0
M  V30 23 H -2.79288 -1.97159 1.36165 0
M  V30 24 H -4.4754 -0.545591 0.393322 0
M  V30 25 H -1.34124 1.88389 -1.28445 0
M  V30 26 H 4.95261 -0.654557 0.740841 0
M  V30 27 H 3.47057 -0.951547 1.79478 0
M  V30 28 H 3.75385 -1.91392 0.244658 0
M  V30 29 H 2.89333 -0.690562 -2.03855 0
M  V30 30 H 3.66275 0.986283 -1.88477 0
M  V30 31 H 4.57973 -0.504395 -1.5267 0
M  V30 32 H 3.50045 2.25568 -0.208796 0
M  V30 33 H 4.59107 1.43309 0.935136 0
M  V30 34 H 2.86083 1.75882 1.36959 0
M  V30 35 H -4.40224 3.3015 -2.24136 0
M  V30 36 H -5.9774 1.9051 -0.209966 0
M  V30 37 H -5.90823 0.746295 -1.57247 0
M  V30 END ATOM
M  V30 BEGIN BOND
M  V30 1 1 1 2
M  V30 2 1 2 3
M  V30 3 2 3 4
M  V30 4 1 4 5
M  V30 5 2 5 6
M  V30 6 1 6 7
M  V30 7 2 7 8
M  V30 8 1 8 9
M  V30 9 2 9 10
M  V30 10 1 9 11
M  V30 11 1 11 12
M  V30 12 1 12 13
M  V30 13 1 12 14
M  V30 14 1 12 15
M  V30 15 1 6 16
M  V30 16 2 16 17 CFG=2
M  V30 17 1 16 18
M  V30 18 1 8 3
M  V30 19 1 1 19
M  V30 20 1 1 20
M  V30 21 1 2 21
M  V30 22 1 2 22
M  V30 23 1 4 23
M  V30 24 1 5 24
M  V30 25 1 7 25
M  V30 26 1 13 26
M  V30 27 1 13 27
M  V30 28 1 13 28
M  V30 29 1 14 29
M  V30 30 1 14 30
M  V30 31 1 14 31
M  V30 32 1 15 32
M  V30 33 1 15 33
M  V30 34 1 15 34
M  V30 35 1 17 35
M  V30 36 1 18 36
M  V30 37 1 18 37
M  V30 END BOND
M  V30 END CTAB
M  END
