
     RDKit          3D

  0  0  0  0  0  0  0  0  0  0999 V3000
M  V30 BEGIN CTAB
M  V30 COUNTS 26 27 0 0 0
M  V30 BEGIN ATOM
M  V30 1 C 3.15965 -1.64595 -0.202733 0
M  V30 2 C 1.91493 -0.819611 -0.127735 0
M  V30 3 N 0.701463 -1.4171 -0.139709 0
M  V30 4 C -0.446091 -0.739508 -0.0756704 0
M  V30 5 C -1.62338 -1.44756 -0.0950769 0
M  V30 6 C -2.82655 -0.776738 -0.0303407 0
M  V30 7 N -4.05859 -1.46646 -0.0475459 0
M  V30 8 C -2.81704 0.619204 0.0541311 0
M  V30 9 C -1.60687 1.30095 0.0712859 0
M  V30 10 N -1.61677 2.71375 0.157166 0
M  V30 11 C -0.399042 0.622972 0.00602097 0
M  V30 12 N 0.788148 1.27458 0.0218013 0
M  V30 13 C 1.94278 0.552162 -0.0450983 0
M  V30 14 C 3.27788 1.20433 -0.0322417 0
M  V30 15 H 3.90396 -1.2722 0.535418 0
M  V30 16 H 2.89143 -2.67732 0.114433 0
M  V30 17 H 3.55573 -1.71616 -1.22628 0
M  V30 18 H -1.65609 -2.53892 -0.160613 0
M  V30 19 H -4.12117 -2.42331 -0.447959 0
M  V30 20 H -4.94045 -1.05694 0.331612 0
M  V30 21 H -3.76964 1.131 0.104207 0
M  V30 22 H -1.05571 3.25625 -0.538087 0
M  V30 23 H -2.15215 3.24941 0.875099 0
M  V30 24 H 3.18247 2.29208 -0.194932 0
M  V30 25 H 3.82436 0.985729 0.926439 0
M  V30 26 H 3.94673 0.795355 -0.833188 0
M  V30 END ATOM
M  V30 BEGIN BOND
M  V30 1 1 1 2
M  V30 2 2 2 3
M  V30 3 1 3 4
M  V30 4 2 4 5
M  V30 5 1 5 6
M  V30 6 1 6 7
M  V30 7 2 6 8
M  V30 8 1 8 9
M  V30 9 1 9 10
M  V30 10 2 9 11
M  V30 11 1 11 12
M  V30 12 2 12 13
M  V30 13 1 13 14
M  V30 14 1 13 2
M  V30 15 1 11 4
M  V30 16 1 1 15
M  V30 17 1 1 16
M  V30 18 1 1 17
M  V30 19 1 5 18
M  V30 20 1 7 19
M  V30 21 1 7 20
M  V30 22 1 8 21
M  V30 23 1 10 22
M  V30 24 1 10 23
M  V30 25 1 14 24
M  V30 26 1 14 25
M  V30 27 1 14 26
M  V30 END BOND
M  V30 END CTAB
M  END
