
     RDKit          3D

  0  0  0  0  0  0  0  0  0  0999 V3000
M  V30 BEGIN CTAB
M  V30 COUNTS 26 27 0 0 0
M  V30 BEGIN ATOM
M  V30 1 N 4.83353 0.239333 0.639651 0
M  V30 2 C 3.56508 -0.0861481 0.0675408 0
M  V30 3 C 2.83169 -1.11146 0.588578 0
M  V30 4 C 1.59031 -1.44206 0.0409894 0
M  V30 5 C 1.07757 -0.744914 -1.03349 0
M  V30 6 O -0.149952 -1.12675 -1.51906 0
M  V30 7 C -1.35145 -0.604905 -1.06799 0
M  V30 8 C -1.36325 0.347865 -0.0833675 0
M  V30 9 C -2.53417 0.881992 0.382659 0
M  V30 10 C -3.71714 0.436881 -0.165075 0
M  V30 11 N -4.92875 0.980413 0.307638 0
M  V30 12 C -3.72306 -0.521477 -1.15678 0
M  V30 13 N -2.53468 -1.00158 -1.56564 0
M  V30 14 C 1.81542 0.295963 -1.5672 0
M  V30 15 C 3.04013 0.603247 -1.00776 0
M  V30 16 H 5.67255 0.365748 0.010124 0
M  V30 17 H 4.94444 0.354169 1.66926 0
M  V30 18 H 3.21171 -1.68059 1.43827 0
M  V30 19 H 1.02704 -2.26327 0.475479 0
M  V30 20 H -0.429702 0.702016 0.351896 0
M  V30 21 H -2.55735 1.64721 1.17244 0
M  V30 22 H -5.19436 1.94193 0.0611152 0
M  V30 23 H -5.55082 0.393931 0.91013 0
M  V30 24 H -4.66298 -0.878563 -1.59552 0
M  V30 25 H 1.42977 0.853732 -2.40937 0
M  V30 26 H 3.65842 1.41728 -1.39577 0
M  V30 END ATOM
M  V30 BEGIN BOND
M  V30 1 1 1 2
M  V30 2 2 2 3
M  V30 3 1 3 4
M  V30 4 2 4 5
M  V30 5 1 5 6
M  V30 6 1 6 7
M  V30 7 2 7 8
M  V30 8 1 8 9
M  V30 9 2 9 10
M  V30 10 1 10 11
M  V30 11 1 10 12
M  V30 12 2 12 13
M  V30 13 1 5 14
M  V30 14 2 14 15
M  V30 15 1 15 2
M  V30 16 1 13 7
M  V30 17 1 1 16
M  V30 18 1 1 17
M  V30 19 1 3 18
M  V30 20 1 4 19
M  V30 21 1 8 20
M  V30 22 1 9 21
M  V30 23 1 11 22
M  V30 24 1 11 23
M  V30 25 1 12 24
M  V30 26 1 14 25
M  V30 27 1 15 26
M  V30 END BOND
M  V30 END CTAB
M  END
