
     RDKit          3D

  0  0  0  0  0  0  0  0  0  0999 V3000
M  V30 BEGIN CTAB
M  V30 COUNTS 27 28 0 0 0
M  V30 BEGIN ATOM
M  V30 1 N -4.64296 0.201031 0.757681 0
M  V30 2 C -3.22125 0.14554 0.530413 0
M  V30 3 N -2.67319 0.234411 -0.686638 0
M  V30 4 C -1.3216 0.171187 -0.885458 0
M  V30 5 C -0.827637 0.287733 -2.26028 0
M  V30 6 F -0.557232 -0.965594 -2.7486 0
M  V30 7 C -0.478458 0.0141282 0.172644 0
M  V30 8 C -1.06135 -0.0779727 1.44465 0
M  V30 9 N -0.168714 -0.244584 2.53059 0
M  V30 10 N -2.39063 -0.0105685 1.58559 0
M  V30 11 C 0.95595 -0.0809158 -0.0112183 0
M  V30 12 C 1.66994 -1.23487 -0.139614 0
M  V30 13 Cl 0.844359 -2.77234 0.0051277 0
M  V30 14 C 3.04649 -1.28125 -0.345285 0
M  V30 15 Cl 3.91818 -2.79175 -0.505803 0
M  V30 16 C 3.74889 -0.089258 -0.425832 0
M  V30 17 C 3.05889 1.11034 -0.298019 0
M  V30 18 Cl 3.97602 2.59817 -0.402556 0
M  V30 19 C 1.69848 1.1118 -0.0965633 0
M  V30 20 H -5.26068 -0.621843 0.677524 0
M  V30 21 H -5.09207 1.10399 1.01693 0
M  V30 22 H 0.0689504 0.958687 -2.32678 0
M  V30 23 H -1.60253 0.746866 -2.89745 0
M  V30 24 H 0.146529 0.636905 3.02257 0
M  V30 25 H 0.185099 -1.15432 2.86175 0
M  V30 26 H 4.81432 -0.0548431 -0.582639 0
M  V30 27 H 1.16618 2.05932 0.00724947 0
M  V30 END ATOM
M  V30 BEGIN BOND
M  V30 1 1 1 2
M  V30 2 2 2 3
M  V30 3 1 3 4
M  V30 4 1 4 5
M  V30 5 1 5 6
M  V30 6 2 4 7
M  V30 7 1 7 8
M  V30 8 1 8 9
M  V30 9 2 8 10
M  V30 10 1 7 11
M  V30 11 2 11 12
M  V30 12 1 12 13
M  V30 13 1 12 14
M  V30 14 1 14 15
M  V30 15 2 14 16
M  V30 16 1 16 17
M  V30 17 1 17 18
M  V30 18 2 17 19
M  V30 19 1 10 2
M  V30 20 1 19 11
M  V30 21 1 1 20
M  V30 22 1 1 21
M  V30 23 1 5 22
M  V30 24 1 5 23
M  V30 25 1 9 24
M  V30 26 1 9 25
M  V30 27 1 16 26
M  V30 28 1 19 27
M  V30 END BOND
M  V30 END CTAB
M  END
