
     RDKit          3D

  0  0  0  0  0  0  0  0  0  0999 V3000
M  V30 BEGIN CTAB
M  V30 COUNTS 31 33 0 0 0
M  V30 BEGIN ATOM
M  V30 1 N 4.7083 0.104123 0.88493 0
M  V30 2 C 3.32689 -0.0689864 0.711855 0
M  V30 3 C 2.52099 -0.728673 1.63442 0
M  V30 4 N 1.19806 -0.875531 1.43398 0
M  V30 5 C 0.598363 -0.384621 0.321802 0
M  V30 6 C 1.38721 0.269638 -0.596859 0
M  V30 7 C 2.75668 0.448208 -0.438003 0
M  V30 8 N 3.52787 1.13195 -1.41693 0
M  V30 9 C 0.562249 0.665818 -1.61539 0
M  V30 10 N -0.667988 0.242945 -1.27726 0
M  V30 11 N -0.668179 -0.389834 -0.118082 0
M  V30 12 C -1.82339 -0.967298 0.529829 0
M  V30 13 C -2.89051 -1.36089 -0.477834 0
M  V30 14 C -3.53234 -0.0547726 -0.880167 0
M  V30 15 C -3.18436 0.921263 0.227323 0
M  V30 16 C -2.57191 0.0867493 1.34265 0
M  V30 17 H 5.29766 -0.706105 1.16031 0
M  V30 18 H 5.15477 1.0304 0.742479 0
M  V30 19 H 2.97118 -1.12553 2.52124 0
M  V30 20 H 4.13974 0.629256 -2.08595 0
M  V30 21 H 3.49162 2.17194 -1.48136 0
M  V30 22 H 0.868924 1.20379 -2.49208 0
M  V30 23 H -1.54513 -1.84203 1.14224 0
M  V30 24 H -3.60799 -2.00603 0.0692819 0
M  V30 25 H -2.38531 -1.87518 -1.314 0
M  V30 26 H -3.19563 0.318103 -1.85405 0
M  V30 27 H -4.63836 -0.20369 -0.957072 0
M  V30 28 H -2.48019 1.70442 -0.118002 0
M  V30 29 H -4.10955 1.42735 0.534655 0
M  V30 30 H -1.86384 0.666593 1.9513 0
M  V30 31 H -3.34586 -0.433382 1.91474 0
M  V30 END ATOM
M  V30 BEGIN BOND
M  V30 1 1 1 2
M  V30 2 2 2 3
M  V30 3 1 3 4
M  V30 4 2 4 5
M  V30 5 1 5 6
M  V30 6 2 6 7
M  V30 7 1 7 8
M  V30 8 1 6 9
M  V30 9 2 9 10
M  V30 10 1 10 11
M  V30 11 1 11 12
M  V30 12 1 12 13
M  V30 13 1 13 14
M  V30 14 1 14 15
M  V30 15 1 15 16
M  V30 16 1 7 2
M  V30 17 1 16 12
M  V30 18 1 11 5
M  V30 19 1 1 17
M  V30 20 1 1 18
M  V30 21 1 3 19
M  V30 22 1 8 20
M  V30 23 1 8 21
M  V30 24 1 9 22
M  V30 25 1 12 23
M  V30 26 1 13 24
M  V30 27 1 13 25
M  V30 28 1 14 26
M  V30 29 1 14 27
M  V30 30 1 15 28
M  V30 31 1 15 29
M  V30 32 1 16 30
M  V30 33 1 16 31
M  V30 END BOND
M  V30 END CTAB
M  END
