
     RDKit          3D

  0  0  0  0  0  0  0  0  0  0999 V3000
M  V30 BEGIN CTAB
M  V30 COUNTS 30 31 0 0 0
M  V30 BEGIN ATOM
M  V30 1 C 5.50083 -1.67931 -0.045607 0
M  V30 2 O 4.76596 -0.490719 -0.0719241 0
M  V30 3 C 3.45309 -0.221237 0.177852 0
M  V30 4 C 2.56401 -1.20329 0.504099 0
M  V30 5 C 1.25469 -0.894973 0.779639 0
M  V30 6 C 0.754999 0.430998 0.748876 0
M  V30 7 C 1.71009 1.41422 0.392576 0
M  V30 8 C 3.00693 1.09194 0.120363 0
M  V30 9 N 1.23476 2.75464 0.358838 0
M  V30 10 S -0.77309 0.797555 1.25348 0
M  V30 11 C -2.27785 1.0086 0.486455 0
M  V30 12 N -2.89387 2.14607 0.0231408 0
M  V30 13 N -4.11857 1.86377 -0.357149 0
M  V30 14 C -4.38255 0.544596 -0.175165 0
M  V30 15 N -3.24392 0.0239639 0.333959 0
M  V30 16 N -3.03603 -1.30965 0.638669 0
M  V30 17 C -5.69655 -0.158156 -0.384652 0
M  V30 18 F -6.50071 0.36672 0.678089 0
M  V30 19 F -6.29689 0.140686 -1.5631 0
M  V30 20 F -5.55362 -1.47213 -0.0895397 0
M  V30 21 H 6.33962 -1.5275 -0.79615 0
M  V30 22 H 6.00255 -1.81624 0.955616 0
M  V30 23 H 4.92211 -2.54962 -0.355832 0
M  V30 24 H 2.87081 -2.25454 0.548374 0
M  V30 25 H 0.563363 -1.6746 1.02895 0
M  V30 26 H 3.71644 1.90112 -0.122916 0
M  V30 27 H 0.727983 3.0641 -0.570438 0
M  V30 28 H 1.32015 3.45679 1.08244 0
M  V30 29 H -3.17429 -2.01673 -0.144253 0
M  V30 30 H -2.76045 -1.73709 1.53674 0
M  V30 END ATOM
M  V30 BEGIN BOND
M  V30 1 1 1 2
M  V30 2 1 2 3
M  V30 3 2 3 4
M  V30 4 1 4 5
M  V30 5 2 5 6
M  V30 6 1 6 7
M  V30 7 2 7 8
M  V30 8 1 7 9
M  V30 9 1 6 10
M  V30 10 1 10 11
M  V30 11 2 11 12
M  V30 12 1 12 13
M  V30 13 2 13 14
M  V30 14 1 14 15
M  V30 15 1 15 16
M  V30 16 1 14 17
M  V30 17 1 17 18
M  V30 18 1 17 19
M  V30 19 1 17 20
M  V30 20 1 8 3
M  V30 21 1 15 11
M  V30 22 1 1 21
M  V30 23 1 1 22
M  V30 24 1 1 23
M  V30 25 1 4 24
M  V30 26 1 5 25
M  V30 27 1 8 26
M  V30 28 1 9 27
M  V30 29 1 9 28
M  V30 30 1 16 29
M  V30 31 1 16 30
M  V30 END BOND
M  V30 END CTAB
M  END
