
     RDKit          3D

  0  0  0  0  0  0  0  0  0  0999 V3000
M  V30 BEGIN CTAB
M  V30 COUNTS 51 53 0 0 0
M  V30 BEGIN ATOM
M  V30 1 C 4.29486 -2.64148 -1.87837 0
M  V30 2 O 3.47851 -1.82149 -1.05886 0
M  V30 3 C 2.10893 -2.1108 -0.978037 0
M  V30 4 C 1.56908 -3.16328 -1.67544 0
M  V30 5 C 0.217223 -3.39692 -1.55529 0
M  V30 6 C -0.53089 -2.57904 -0.753542 0
M  V30 7 C 0.00556473 -1.50347 -0.0382456 0
M  V30 8 C 1.35126 -1.2742 -0.158841 0
M  V30 9 O 1.92449 -0.236707 0.529514 0
M  V30 10 C 2.1107 1.0583 0.0451956 0
M  V30 11 C 2.78195 1.87165 1.11744 0
M  V30 12 C 3.08689 1.31836 2.27912 0
M  V30 13 C 3.074 3.2957 0.801627 0
M  V30 14 C -0.919933 -0.7045 0.744206 0
M  V30 15 C -1.1526 -0.921905 2.09484 0
M  V30 16 C -0.395114 -1.97428 2.72075 0
M  V30 17 N 0.225846 -2.80951 3.21986 0
M  V30 18 C -2.04035 -0.210592 2.8511 0
M  V30 19 N -2.25643 -0.45934 4.23939 0
M  V30 20 N -2.73762 0.778304 2.21713 0
M  V30 21 C -2.559 1.03656 0.916899 0
M  V30 22 C -1.64454 0.297553 0.15397 0
M  V30 23 C -1.54614 0.64018 -1.2814 0
M  V30 24 C -2.89603 0.83508 -1.91948 0
M  V30 25 N -2.79143 1.68975 -3.1017 0
M  V30 26 C -3.93363 1.4209 -1.0113 0
M  V30 27 C -3.288 2.0937 0.169831 0
M  V30 28 H 5.29612 -2.23706 -2.01656 0
M  V30 29 H 4.2328 -3.66209 -1.49811 0
M  V30 30 H 3.81828 -2.65679 -2.89778 0
M  V30 31 H 2.22022 -3.76988 -2.29211 0
M  V30 32 H -0.196957 -4.23209 -2.11122 0
M  V30 33 H -1.59549 -2.77043 -0.664612 0
M  V30 34 H 2.81321 1.07782 -0.829439 0
M  V30 35 H 1.20763 1.58042 -0.30436 0
M  V30 36 H 2.86232 0.281028 2.47981 0
M  V30 37 H 3.5699 1.94856 3.0178 0
M  V30 38 H 2.28318 3.73983 0.158572 0
M  V30 39 H 3.05364 3.84556 1.77802 0
M  V30 40 H 4.08737 3.42789 0.362784 0
M  V30 41 H -2.21905 0.287172 4.96382 0
M  V30 42 H -2.45933 -1.44732 4.50863 0
M  V30 43 H -0.910321 1.54976 -1.3924 0
M  V30 44 H -1.00479 -0.168187 -1.81461 0
M  V30 45 H -3.26162 -0.156872 -2.31862 0
M  V30 46 H -3.64606 2.27376 -3.21891 0
M  V30 47 H -1.92135 2.29136 -3.05904 0
M  V30 48 H -4.53581 2.18561 -1.54437 0
M  V30 49 H -4.58416 0.603314 -0.60219 0
M  V30 50 H -2.59181 2.88567 -0.176602 0
M  V30 51 H -4.0555 2.59445 0.781114 0
M  V30 END ATOM
M  V30 BEGIN BOND
M  V30 1 1 1 2
M  V30 2 1 2 3
M  V30 3 2 3 4
M  V30 4 1 4 5
M  V30 5 2 5 6
M  V30 6 1 6 7
M  V30 7 2 7 8
M  V30 8 1 8 9
M  V30 9 1 9 10
M  V30 10 1 10 11
M  V30 11 2 11 12 CFG=2
M  V30 12 1 11 13
M  V30 13 1 7 14
M  V30 14 2 14 15
M  V30 15 1 15 16
M  V30 16 3 16 17
M  V30 17 1 15 18
M  V30 18 1 18 19
M  V30 19 2 18 20
M  V30 20 1 20 21
M  V30 21 2 21 22
M  V30 22 1 22 23
M  V30 23 1 23 24
M  V30 24 1 24 25
M  V30 25 1 24 26
M  V30 26 1 26 27
M  V30 27 1 8 3
M  V30 28 1 22 14
M  V30 29 1 27 21
M  V30 30 1 1 28
M  V30 31 1 1 29
M  V30 32 1 1 30
M  V30 33 1 4 31
M  V30 34 1 5 32
M  V30 35 1 6 33
M  V30 36 1 10 34
M  V30 37 1 10 35
M  V30 38 1 12 36
M  V30 39 1 12 37
M  V30 40 1 13 38
M  V30 41 1 13 39
M  V30 42 1 13 40
M  V30 43 1 19 41
M  V30 44 1 19 42
M  V30 45 1 23 43
M  V30 46 1 23 44
M  V30 47 1 24 45
M  V30 48 1 25 46
M  V30 49 1 25 47
M  V30 50 1 26 48
M  V30 51 1 26 49
M  V30 52 1 27 50
M  V30 53 1 27 51
M  V30 END BOND
M  V30 END CTAB
M  END
