
     RDKit          3D

  0  0  0  0  0  0  0  0  0  0999 V3000
M  V30 BEGIN CTAB
M  V30 COUNTS 27 26 0 0 0
M  V30 BEGIN ATOM
M  V30 1 O -2.84467 1.41404 0.844462 0
M  V30 2 C -1.59417 0.805011 1.13151 0
M  V30 3 C -1.2873 -0.0604903 -0.0493006 0
M  V30 4 C 0.00942045 -0.805195 0.0014626 0
M  V30 5 N 1.16426 0.0486519 0.0828085 0
M  V30 6 C 2.46906 -0.492973 -0.109821 0
M  V30 7 N 3.55974 -0.0334476 0.376613 0
M  V30 8 N 3.60272 1.09876 1.18321 0
M  V30 9 N 2.54156 -1.67118 -0.948957 0
M  V30 10 C -1.33858 0.820874 -1.30832 0
M  V30 11 C -2.39138 -1.0915 -0.158657 0
M  V30 12 H -2.69973 2.12998 0.18354 0
M  V30 13 H -1.75359 0.143032 2.01551 0
M  V30 14 H -0.854107 1.5729 1.34481 0
M  V30 15 H 0.0996403 -1.38177 -0.931009 0
M  V30 16 H -0.036888 -1.43702 0.9196 0
M  V30 17 H 1.08275 1.05155 0.290651 0
M  V30 18 H 3.51963 2.03033 0.670516 0
M  V30 19 H 3.70196 1.07899 2.22008 0
M  V30 20 H 1.93656 -1.71621 -1.79523 0
M  V30 21 H 3.16489 -2.46978 -0.745528 0
M  V30 22 H -2.37485 0.789244 -1.66209 0
M  V30 23 H -1.0255 1.83148 -1.00085 0
M  V30 24 H -0.661538 0.419938 -2.0912 0
M  V30 25 H -3.36117 -0.612684 -0.412566 0
M  V30 26 H -2.50033 -1.60064 0.847466 0
M  V30 27 H -2.12837 -1.8619 -0.898696 0
M  V30 END ATOM
M  V30 BEGIN BOND
M  V30 1 1 1 2
M  V30 2 1 2 3
M  V30 3 1 3 4
M  V30 4 1 4 5
M  V30 5 1 5 6
M  V30 6 2 6 7 CFG=2
M  V30 7 1 7 8
M  V30 8 1 6 9
M  V30 9 1 3 10
M  V30 10 1 3 11
M  V30 11 1 1 12
M  V30 12 1 2 13
M  V30 13 1 2 14
M  V30 14 1 4 15
M  V30 15 1 4 16
M  V30 16 1 5 17
M  V30 17 1 8 18
M  V30 18 1 8 19
M  V30 19 1 9 20
M  V30 20 1 9 21
M  V30 21 1 10 22
M  V30 22 1 10 23
M  V30 23 1 10 24
M  V30 24 1 11 25
M  V30 25 1 11 26
M  V30 26 1 11 27
M  V30 END BOND
M  V30 END CTAB
M  END
