
     RDKit          3D

  0  0  0  0  0  0  0  0  0  0999 V3000
M  V30 BEGIN CTAB
M  V30 COUNTS 30 31 0 0 0
M  V30 BEGIN ATOM
M  V30 1 N -4.04897 -1.00828 -0.205662 0
M  V30 2 C -3.20045 -0.254294 -1.09628 0
M  V30 3 C -1.78645 -0.143184 -0.594928 0
M  V30 4 C -1.10311 -1.45693 -0.415164 0
M  V30 5 C 0.373201 -1.20018 -0.186584 0
M  V30 6 C 0.627804 -0.235541 0.935475 0
M  V30 7 C -0.188093 1.03615 0.788887 0
M  V30 8 C -1.66661 0.64394 0.679943 0
M  V30 9 C 2.05487 0.161965 0.898337 0
M  V30 10 O 2.9432 0.0224101 1.85089 0
M  V30 11 N 4.11171 0.477068 1.49483 0
M  V30 12 C 4.00866 0.943351 0.249579 0
M  V30 13 N 2.73978 0.750826 -0.123102 0
M  V30 14 N 5.03585 1.52115 -0.512469 0
M  V30 15 H -4.69365 -0.419427 0.351472 0
M  V30 16 H -3.56195 -1.74032 0.316759 0
M  V30 17 H -3.15726 -0.768028 -2.07919 0
M  V30 18 H -3.56901 0.768277 -1.27674 0
M  V30 19 H -1.2171 0.424327 -1.37509 0
M  V30 20 H -1.49384 -1.97526 0.484945 0
M  V30 21 H -1.20496 -2.09696 -1.30131 0
M  V30 22 H 0.855727 -0.822551 -1.08684 0
M  V30 23 H 0.846367 -2.17609 0.124184 0
M  V30 24 H 0.369976 -0.684008 1.89165 0
M  V30 25 H -0.00449444 1.66515 1.66908 0
M  V30 26 H 0.165935 1.54378 -0.1233 0
M  V30 27 H -1.85387 -0.0524604 1.5217 0
M  V30 28 H -2.29987 1.54027 0.689894 0
M  V30 29 H 5.82786 0.972154 -0.936213 0
M  V30 30 H 5.08875 2.56268 -0.718386 0
M  V30 END ATOM
M  V30 BEGIN BOND
M  V30 1 1 1 2
M  V30 2 1 2 3
M  V30 3 1 3 4
M  V30 4 1 4 5
M  V30 5 1 5 6
M  V30 6 1 6 7
M  V30 7 1 7 8
M  V30 8 1 6 9
M  V30 9 1 9 10
M  V30 10 1 10 11
M  V30 11 2 11 12
M  V30 12 1 12 13
M  V30 13 1 12 14
M  V30 14 1 8 3
M  V30 15 2 13 9
M  V30 16 1 1 15
M  V30 17 1 1 16
M  V30 18 1 2 17
M  V30 19 1 2 18
M  V30 20 1 3 19
M  V30 21 1 4 20
M  V30 22 1 4 21
M  V30 23 1 5 22
M  V30 24 1 5 23
M  V30 25 1 6 24
M  V30 26 1 7 25
M  V30 27 1 7 26
M  V30 28 1 8 27
M  V30 29 1 8 28
M  V30 30 1 14 29
M  V30 31 1 14 30
M  V30 END BOND
M  V30 END CTAB
M  END
