
     RDKit          3D

  0  0  0  0  0  0  0  0  0  0999 V3000
M  V30 BEGIN CTAB
M  V30 COUNTS 46 46 0 0 0
M  V30 BEGIN ATOM
M  V30 1 C 2.94052 1.38875 0.721382 0
M  V30 2 C 3.4068 0.184541 -0.0335411 0
M  V30 3 C 3.00485 0.351743 -1.50443 0
M  V30 4 C 4.9146 0.0618296 0.027594 0
M  V30 5 N 5.62923 1.16329 -0.517518 0
M  V30 6 C 2.85012 -1.10519 0.519246 0
M  V30 7 C 1.37259 -1.15993 0.489164 0
M  V30 8 C 0.678788 -1.6616 -0.59351 0
M  V30 9 C -0.699666 -1.71361 -0.623132 0
M  V30 10 C -1.46677 -1.26553 0.4316 0
M  V30 11 C -2.95985 -1.32213 0.398819 0
M  V30 12 C -3.549 -0.0600592 -0.184341 0
M  V30 13 C -5.05491 -0.218921 -0.172243 0
M  V30 14 C -3.2062 1.15138 0.663187 0
M  V30 15 C -3.12978 0.170652 -1.6128 0
M  V30 16 N -3.76546 1.41105 -2.04388 0
M  V30 17 C -0.781768 -0.763097 1.51655 0
M  V30 18 C 0.597486 -0.713755 1.54014 0
M  V30 19 H 1.99295 1.75924 0.304408 0
M  V30 20 H 2.88455 1.21581 1.82235 0
M  V30 21 H 3.69105 2.19413 0.586726 0
M  V30 22 H 1.90132 0.529078 -1.52505 0
M  V30 23 H 3.46432 1.26922 -1.90114 0
M  V30 24 H 3.31093 -0.530865 -2.08936 0
M  V30 25 H 5.18697 -0.866703 -0.555427 0
M  V30 26 H 5.20015 -0.18213 1.08652 0
M  V30 27 H 6.4204 1.48557 0.0989092 0
M  V30 28 H 5.08618 1.95039 -0.876309 0
M  V30 29 H 3.31809 -1.9319 -0.0709772 0
M  V30 30 H 3.26235 -1.2112 1.54849 0
M  V30 31 H 1.27485 -2.01965 -1.43524 0
M  V30 32 H -1.23889 -2.1124 -1.48456 0
M  V30 33 H -3.38955 -1.43574 1.41596 0
M  V30 34 H -3.30553 -2.17139 -0.198271 0
M  V30 35 H -5.56945 0.721716 0.102974 0
M  V30 36 H -5.37881 -0.977636 0.575408 0
M  V30 37 H -5.45395 -0.560247 -1.15271 0
M  V30 38 H -2.21366 1.55669 0.439768 0
M  V30 39 H -3.98352 1.94178 0.468407 0
M  V30 40 H -3.33053 0.885635 1.74474 0
M  V30 41 H -3.52486 -0.65276 -2.24331 0
M  V30 42 H -2.05187 0.308113 -1.74251 0
M  V30 43 H -3.31444 2.24128 -1.60183 0
M  V30 44 H -4.78017 1.40803 -1.88991 0
M  V30 45 H -1.37076 -0.403872 2.36047 0
M  V30 46 H 1.13027 -0.309623 2.41437 0
M  V30 END ATOM
M  V30 BEGIN BOND
M  V30 1 1 1 2
M  V30 2 1 2 3
M  V30 3 1 2 4
M  V30 4 1 4 5
M  V30 5 1 2 6
M  V30 6 1 6 7
M  V30 7 2 7 8
M  V30 8 1 8 9
M  V30 9 2 9 10
M  V30 10 1 10 11
M  V30 11 1 11 12
M  V30 12 1 12 13
M  V30 13 1 12 14
M  V30 14 1 12 15
M  V30 15 1 15 16
M  V30 16 1 10 17
M  V30 17 2 17 18
M  V30 18 1 18 7
M  V30 19 1 1 19
M  V30 20 1 1 20
M  V30 21 1 1 21
M  V30 22 1 3 22
M  V30 23 1 3 23
M  V30 24 1 3 24
M  V30 25 1 4 25
M  V30 26 1 4 26
M  V30 27 1 5 27
M  V30 28 1 5 28
M  V30 29 1 6 29
M  V30 30 1 6 30
M  V30 31 1 8 31
M  V30 32 1 9 32
M  V30 33 1 11 33
M  V30 34 1 11 34
M  V30 35 1 13 35
M  V30 36 1 13 36
M  V30 37 1 13 37
M  V30 38 1 14 38
M  V30 39 1 14 39
M  V30 40 1 14 40
M  V30 41 1 15 41
M  V30 42 1 15 42
M  V30 43 1 16 43
M  V30 44 1 16 44
M  V30 45 1 17 45
M  V30 46 1 18 46
M  V30 END BOND
M  V30 END CTAB
M  END
