
     RDKit          3D

  0  0  0  0  0  0  0  0  0  0999 V3000
M  V30 BEGIN CTAB
M  V30 COUNTS 25 25 0 0 0
M  V30 BEGIN ATOM
M  V30 1 C -2.51495 1.41243 0.445005 0
M  V30 2 C -3.1722 0.259774 -0.223348 0
M  V30 3 C -2.4566 -0.462405 -1.29951 0
M  V30 4 O -1.31417 -1.0591 -0.995592 0
M  V30 5 C -0.0772084 -0.822043 -0.593612 0
M  V30 6 C 0.730685 -1.98418 -0.420498 0
M  V30 7 C 2.01921 -1.81011 -0.0112401 0
M  V30 8 C 2.51308 -0.539604 0.224675 0
M  V30 9 C 1.70902 0.564948 0.0489596 0
M  V30 10 N 0.462092 0.381462 -0.348071 0
M  V30 11 N 2.25631 1.85525 0.302681 0
M  V30 12 N 3.85153 -0.394247 0.64751 0
M  V30 13 F -4.37489 0.737173 -0.76274 0
M  V30 14 F -3.47073 -0.665771 0.780816 0
M  V30 15 H -1.95513 2.01583 -0.278685 0
M  V30 16 H -3.35174 2.04396 0.899012 0
M  V30 17 H -1.84925 1.106 1.27557 0
M  V30 18 H -3.17214 -1.24011 -1.77632 0
M  V30 19 H -2.35797 0.251145 -2.22 0
M  V30 20 H 0.30011 -2.95891 -0.617458 0
M  V30 21 H 2.64925 -2.69533 0.12516 0
M  V30 22 H 3.17765 2.16065 -0.0988901 0
M  V30 23 H 1.73107 2.52349 0.905545 0
M  V30 24 H 4.32127 -1.17311 1.13535 0
M  V30 25 H 4.34569 0.492818 0.462747 0
M  V30 END ATOM
M  V30 BEGIN BOND
M  V30 1 1 1 2
M  V30 2 1 2 3
M  V30 3 1 3 4
M  V30 4 1 4 5
M  V30 5 2 5 6
M  V30 6 1 6 7
M  V30 7 2 7 8
M  V30 8 1 8 9
M  V30 9 2 9 10
M  V30 10 1 9 11
M  V30 11 1 8 12
M  V30 12 1 2 13
M  V30 13 1 2 14
M  V30 14 1 10 5
M  V30 15 1 1 15
M  V30 16 1 1 16
M  V30 17 1 1 17
M  V30 18 1 3 18
M  V30 19 1 3 19
M  V30 20 1 6 20
M  V30 21 1 7 21
M  V30 22 1 11 22
M  V30 23 1 11 23
M  V30 24 1 12 24
M  V30 25 1 12 25
M  V30 END BOND
M  V30 END CTAB
M  END
