
     RDKit          3D

  0  0  0  0  0  0  0  0  0  0999 V3000
M  V30 BEGIN CTAB
M  V30 COUNTS 43 45 0 0 0
M  V30 BEGIN ATOM
M  V30 1 N -6.02319 3.15281 -0.35744 0
M  V30 2 S -4.35915 2.71389 -0.226004 0
M  V30 3 O -3.71591 3.57095 0.833305 0
M  V30 4 O -3.66524 2.89461 -1.53859 0
M  V30 5 O -4.27085 1.09489 0.298886 0
M  V30 6 C -3.09653 0.521085 0.771203 0
M  V30 7 C -2.21476 -0.115176 -0.0740191 0
M  V30 8 C -1.03322 -0.698311 0.367224 0
M  V30 9 C -0.765181 -0.616824 1.71607 0
M  V30 10 C -1.63651 0.0164589 2.57784 0
M  V30 11 C -2.80875 0.592583 2.12589 0
M  V30 12 C -0.111931 -1.37829 -0.60189 0
M  V30 13 N -0.431629 -2.79162 -0.730615 0
M  V30 14 C -1.10059 -3.5791 0.119317 0
M  V30 15 N -1.15521 -4.8036 -0.409753 0
M  V30 16 C -0.529247 -4.79133 -1.57883 0
M  V30 17 N -0.0941214 -3.55297 -1.7571 0
M  V30 18 C 1.30992 -1.12935 -0.322321 0
M  V30 19 C 2.01231 -2.01093 0.469433 0
M  V30 20 C 3.3517 -1.79826 0.746847 0
M  V30 21 C 3.99819 -0.680448 0.220126 0
M  V30 22 C 3.31499 0.2033 -0.567078 0
M  V30 23 O 3.91446 1.34235 -1.12222 0
M  V30 24 S 3.93455 2.83112 -0.307833 0
M  V30 25 N 5.25845 3.75871 -0.894064 0
M  V30 26 O 2.62728 3.53213 -0.534417 0
M  V30 27 O 4.08214 2.59836 1.18143 0
M  V30 28 C 1.97905 -0.0292652 -0.830475 0
M  V30 29 H -6.58939 2.50896 0.238223 0
M  V30 30 H -6.13613 4.11474 0.012149 0
M  V30 31 H -2.42519 -0.180183 -1.13881 0
M  V30 32 H 0.143926 -1.05567 2.1148 0
M  V30 33 H -1.42953 0.0857044 3.65621 0
M  V30 34 H -3.51826 1.09557 2.75349 0
M  V30 35 H -0.331403 -0.908664 -1.59762 0
M  V30 36 H -1.53235 -3.31492 1.06634 0
M  V30 37 H -0.435562 -5.67602 -2.21107 0
M  V30 38 H 1.4739 -2.86416 0.857521 0
M  V30 39 H 3.88383 -2.48811 1.36096 0
M  V30 40 H 5.04063 -0.480453 0.413594 0
M  V30 41 H 6.04722 3.15709 -1.23308 0
M  V30 42 H 5.58285 4.47111 -0.198067 0
M  V30 43 H 1.45445 0.687247 -1.45958 0
M  V30 END ATOM
M  V30 BEGIN BOND
M  V30 1 1 1 2
M  V30 2 2 2 3
M  V30 3 2 2 4
M  V30 4 1 2 5
M  V30 5 1 5 6
M  V30 6 2 6 7
M  V30 7 1 7 8
M  V30 8 2 8 9
M  V30 9 1 9 10
M  V30 10 2 10 11
M  V30 11 1 8 12
M  V30 12 1 12 13
M  V30 13 1 13 14
M  V30 14 2 14 15
M  V30 15 1 15 16
M  V30 16 2 16 17
M  V30 17 1 12 18
M  V30 18 2 18 19
M  V30 19 1 19 20
M  V30 20 2 20 21
M  V30 21 1 21 22
M  V30 22 1 22 23
M  V30 23 1 23 24
M  V30 24 1 24 25
M  V30 25 2 24 26
M  V30 26 2 24 27
M  V30 27 2 22 28
M  V30 28 1 11 6
M  V30 29 1 17 13
M  V30 30 1 28 18
M  V30 31 1 1 29
M  V30 32 1 1 30
M  V30 33 1 7 31
M  V30 34 1 9 32
M  V30 35 1 10 33
M  V30 36 1 11 34
M  V30 37 1 12 35
M  V30 38 1 14 36
M  V30 39 1 16 37
M  V30 40 1 19 38
M  V30 41 1 20 39
M  V30 42 1 21 40
M  V30 43 1 25 41
M  V30 44 1 25 42
M  V30 45 1 28 43
M  V30 END BOND
M  V30 END CTAB
M  END
