
     RDKit          3D

  0  0  0  0  0  0  0  0  0  0999 V3000
M  V30 BEGIN CTAB
M  V30 COUNTS 8 7 0 0 0
M  V30 BEGIN ATOM
M  V30 1 N 1.10262 -0.441471 0.286312 0
M  V30 2 C 0.0837509 0.469139 -0.0555987 0
M  V30 3 N -1.19853 -0.0597099 -0.354319 0
M  V30 4 S 0.319299 2.05447 -0.117653 0 MASS=35
M  V30 5 H 1.57556 -0.357548 1.19941 0
M  V30 6 H 1.36755 -1.18604 -0.380924 0
M  V30 7 H -1.94515 0.0795095 0.344441 0
M  V30 8 H -1.3051 -0.558348 -1.26657 0
M  V30 END ATOM
M  V30 BEGIN BOND
M  V30 1 1 1 2
M  V30 2 1 2 3
M  V30 3 2 2 4
M  V30 4 1 1 5
M  V30 5 1 1 6
M  V30 6 1 3 7
M  V30 7 1 3 8
M  V30 END BOND
M  V30 END CTAB
M  END
