
     RDKit          3D

  0  0  0  0  0  0  0  0  0  0999 V3000
M  V30 BEGIN CTAB
M  V30 COUNTS 39 40 0 0 0
M  V30 BEGIN ATOM
M  V30 1 N 4.545 1.11303 -0.638842 0
M  V30 2 C 3.60158 0.0304867 -0.823711 0 CFG=1
M  V30 3 C 3.93339 -1.13789 0.0520119 0
M  V30 4 C 2.622 -1.71795 0.449176 0
M  V30 5 N 1.59187 -0.752178 0.148808 0
M  V30 6 C 2.27875 0.490004 -0.236287 0
M  V30 7 C 0.205933 -0.9998 0.22339 0
M  V30 8 O -0.173451 -2.1407 0.57528 0
M  V30 9 C -0.83541 -0.00856953 -0.0836973 0
M  V30 10 C -0.827937 1.18246 0.809066 0
M  V30 11 C -1.78694 2.22684 0.36443 0
M  V30 12 C -3.11743 1.71363 -0.0886373 0
M  V30 13 C -3.05947 0.463534 -0.892643 0
M  V30 14 C -2.22351 -0.559721 -0.105598 0
M  V30 15 C -2.34787 -1.92588 -0.734167 0
M  V30 16 N -2.77187 -0.580391 1.2258 0
M  V30 17 H 4.82663 1.18703 0.356225 0
M  V30 18 H 4.03401 2.0026 -0.879628 0
M  V30 19 H 3.51306 -0.233033 -1.89538 0
M  V30 20 H 4.51798 -0.747623 0.9277 0
M  V30 21 H 4.53545 -1.87431 -0.527934 0
M  V30 22 H 2.42584 -2.60688 -0.219513 0
M  V30 23 H 2.58152 -2.0645 1.50138 0
M  V30 24 H 2.52575 1.00737 0.713876 0
M  V30 25 H 1.68622 1.08502 -0.935016 0
M  V30 26 H -0.606374 0.367971 -1.12495 0
M  V30 27 H 0.173315 1.67317 0.909352 0
M  V30 28 H -1.08247 0.856632 1.85114 0
M  V30 29 H -1.29162 2.86223 -0.419151 0
M  V30 30 H -1.97233 2.91519 1.22328 0
M  V30 31 H -3.81905 1.57971 0.76409 0
M  V30 32 H -3.57418 2.50866 -0.731029 0
M  V30 33 H -4.08768 0.0493945 -0.970476 0
M  V30 34 H -2.57073 0.579502 -1.86208 0
M  V30 35 H -2.5203 -2.65683 0.0626266 0
M  V30 36 H -1.56348 -2.15997 -1.45072 0
M  V30 37 H -3.30356 -1.90257 -1.32519 0
M  V30 38 H -3.79816 -0.653359 1.26115 0
M  V30 39 H -2.26445 -1.17232 1.89007 0
M  V30 END ATOM
M  V30 BEGIN BOND
M  V30 1 1 1 2
M  V30 2 1 2 3
M  V30 3 1 3 4
M  V30 4 1 4 5
M  V30 5 1 5 6
M  V30 6 1 5 7
M  V30 7 2 7 8
M  V30 8 1 7 9
M  V30 9 1 9 10
M  V30 10 1 10 11
M  V30 11 1 11 12
M  V30 12 1 12 13
M  V30 13 1 13 14
M  V30 14 1 14 15
M  V30 15 1 14 16
M  V30 16 1 6 2
M  V30 17 1 14 9
M  V30 18 1 1 17
M  V30 19 1 1 18
M  V30 20 1 2 19 CFG=3
M  V30 21 1 3 20
M  V30 22 1 3 21
M  V30 23 1 4 22
M  V30 24 1 4 23
M  V30 25 1 6 24
M  V30 26 1 6 25
M  V30 27 1 9 26
M  V30 28 1 10 27
M  V30 29 1 10 28
M  V30 30 1 11 29
M  V30 31 1 11 30
M  V30 32 1 12 31
M  V30 33 1 12 32
M  V30 34 1 13 33
M  V30 35 1 13 34
M  V30 36 1 15 35
M  V30 37 1 15 36
M  V30 38 1 15 37
M  V30 39 1 16 38
M  V30 40 1 16 39
M  V30 END BOND
M  V30 END CTAB
M  END
