
     RDKit          3D

  0  0  0  0  0  0  0  0  0  0999 V3000
M  V30 BEGIN CTAB
M  V30 COUNTS 27 28 0 0 0
M  V30 BEGIN ATOM
M  V30 1 C -3.67814 1.24345 -0.51522 0
M  V30 2 C -2.64352 0.165409 -0.387982 0
M  V30 3 C -2.60324 -0.453882 0.992952 0
M  V30 4 C -1.16587 -0.92324 1.09417 0
M  V30 5 C -0.592592 -0.481883 -0.21644 0
M  V30 6 O -1.33146 0.676709 -0.518682 0
M  V30 7 C 0.851394 -0.244552 -0.197748 0
M  V30 8 N 1.69005 -1.09924 -0.796437 0
M  V30 9 C 3.03429 -0.934445 -0.813613 0
M  V30 10 N 3.84976 -1.88537 -1.46939 0
M  V30 11 N 3.51776 0.148934 -0.190921 0
M  V30 12 C 2.68429 1.01361 0.413443 0
M  V30 13 N 1.34847 0.834302 0.420969 0
M  V30 14 N 3.24087 2.14307 1.05797 0
M  V30 15 H -3.44877 1.8203 -1.43228 0
M  V30 16 H -3.73114 1.83787 0.395916 0
M  V30 17 H -4.65406 0.723922 -0.734153 0
M  V30 18 H -2.73817 -0.599992 -1.19324 0
M  V30 19 H -3.32489 -1.2743 1.11258 0
M  V30 20 H -2.75805 0.376693 1.7229 0
M  V30 21 H -1.1911 -2.03776 1.11427 0
M  V30 22 H -0.64284 -0.514823 1.96915 0
M  V30 23 H -0.90206 -1.23012 -0.988865 0
M  V30 24 H 4.23966 -1.6613 -2.39588 0
M  V30 25 H 4.05136 -2.79297 -1.0242 0
M  V30 26 H 3.55727 2.1149 2.04381 0
M  V30 27 H 3.34074 3.0347 0.536917 0
M  V30 END ATOM
M  V30 BEGIN BOND
M  V30 1 1 1 2
M  V30 2 1 2 3
M  V30 3 1 3 4
M  V30 4 1 4 5
M  V30 5 1 5 6
M  V30 6 1 5 7
M  V30 7 2 7 8
M  V30 8 1 8 9
M  V30 9 1 9 10
M  V30 10 2 9 11
M  V30 11 1 11 12
M  V30 12 2 12 13
M  V30 13 1 12 14
M  V30 14 1 6 2
M  V30 15 1 13 7
M  V30 16 1 1 15
M  V30 17 1 1 16
M  V30 18 1 1 17
M  V30 19 1 2 18
M  V30 20 1 3 19
M  V30 21 1 3 20
M  V30 22 1 4 21
M  V30 23 1 4 22
M  V30 24 1 5 23
M  V30 25 1 10 24
M  V30 26 1 10 25
M  V30 27 1 14 26
M  V30 28 1 14 27
M  V30 END BOND
M  V30 END CTAB
M  END
