
     RDKit          3D

  0  0  0  0  0  0  0  0  0  0999 V3000
M  V30 BEGIN CTAB
M  V30 COUNTS 20 20 0 0 0
M  V30 BEGIN ATOM
M  V30 1 C -1.39563 -1.37552 -0.210837 0
M  V30 2 C -1.13277 -0.145391 0.608373 0
M  V30 3 N -2.30696 0.686374 0.608674 0
M  V30 4 N 0.0519345 0.578258 0.0644581 0
M  V30 5 C -0.0175646 1.82057 -0.340644 0
M  V30 6 C 1.12937 2.39698 -0.824986 0
M  V30 7 S 2.25557 1.12089 -0.673995 0
M  V30 8 C 1.21945 -0.0516463 -0.0147291 0
M  V30 9 N 1.52553 -1.27644 0.324976 0
M  V30 10 N 2.8383 -1.7065 0.141285 0
M  V30 11 H -2.50222 -1.4865 -0.372793 0
M  V30 12 H -1.11152 -2.26221 0.406373 0
M  V30 13 H -0.878611 -1.34993 -1.18718 0
M  V30 14 H -0.932873 -0.411405 1.68369 0
M  V30 15 H -2.82055 0.71486 -0.278075 0
M  V30 16 H -2.88702 0.606992 1.46318 0
M  V30 17 H -0.945997 2.44882 -0.320996 0
M  V30 18 H 1.26199 3.42663 -1.20856 0
M  V30 19 H 3.1456 -1.99806 -0.796689 0
M  V30 20 H 3.50399 -1.73676 0.928479 0
M  V30 END ATOM
M  V30 BEGIN BOND
M  V30 1 1 1 2
M  V30 2 1 2 3
M  V30 3 1 2 4
M  V30 4 1 4 5
M  V30 5 2 5 6
M  V30 6 1 6 7
M  V30 7 1 7 8
M  V30 8 2 8 9
M  V30 9 1 9 10
M  V30 10 1 8 4
M  V30 11 1 1 11
M  V30 12 1 1 12
M  V30 13 1 1 13
M  V30 14 1 2 14
M  V30 15 1 3 15
M  V30 16 1 3 16
M  V30 17 1 5 17
M  V30 18 1 6 18
M  V30 19 1 10 19
M  V30 20 1 10 20
M  V30 END BOND
M  V30 END CTAB
M  END
