
     RDKit          3D

  0  0  0  0  0  0  0  0  0  0999 V3000
M  V30 BEGIN CTAB
M  V30 COUNTS 51 54 0 0 0
M  V30 BEGIN ATOM
M  V30 1 C 6.05087 -1.47379 -2.88477 0
M  V30 2 O 4.78334 -1.25015 -2.30691 0
M  V30 3 N 4.6692 -1.17362 -0.937796 0
M  V30 4 C 3.65585 -0.621551 -0.35307 0
M  V30 5 C 2.5019 -0.00809215 -1.06932 0
M  V30 6 N 1.61352 0.412771 -0.0313519 0
M  V30 7 C 2.30137 0.396783 1.24614 0
M  V30 8 C 3.47841 -0.510063 1.09612 0
M  V30 9 C 4.66965 0.141755 1.78117 0
M  V30 10 N 4.39801 0.205451 3.20402 0
M  V30 11 C 0.254881 0.798131 -0.178674 0
M  V30 12 C -0.752356 -0.155443 -0.0807369 0
M  V30 13 F -0.34409 -1.42383 0.143983 0
M  V30 14 C -2.09234 0.134182 -0.210457 0
M  V30 15 C -2.42023 1.45546 -0.451736 0
M  V30 16 C -3.73803 1.79406 -0.595387 0
M  V30 17 O -4.11228 2.98252 -0.817593 0
M  V30 18 C -4.70733 0.833286 -0.500121 0
M  V30 19 C -4.31051 -0.465976 -0.257572 0
M  V30 20 N -3.03208 -0.852487 -0.107821 0
M  V30 21 C -2.68561 -2.2196 0.152336 0
M  V30 22 C -2.64341 -2.82827 1.49977 0
M  V30 23 C -3.85271 -3.06375 0.68768 0
M  V30 24 C -6.11548 1.17481 -0.650686 0
M  V30 25 O -6.51722 2.47274 -0.893333 0
M  V30 26 O -6.9908 0.281829 -0.560422 0
M  V30 27 C -1.46074 2.43973 -0.557807 0
M  V30 28 N -1.80741 3.78555 -0.804088 0
M  V30 29 C -0.132383 2.11374 -0.422179 0
M  V30 30 F 0.868844 3.02704 -0.513637 0
M  V30 31 H 6.69806 -1.96291 -2.12597 0
M  V30 32 H 6.50207 -0.518066 -3.26535 0
M  V30 33 H 5.90889 -2.14987 -3.74953 0
M  V30 34 H 2.07144 -0.783412 -1.73307 0
M  V30 35 H 2.82438 0.85969 -1.66363 0
M  V30 36 H 1.62738 0.0923946 2.07475 0
M  V30 37 H 2.66872 1.44862 1.40181 0
M  V30 38 H 3.31528 -1.48927 1.5888 0
M  V30 39 H 5.60069 -0.465986 1.65201 0
M  V30 40 H 4.85255 1.16843 1.41291 0
M  V30 41 H 3.79505 1.03264 3.45587 0
M  V30 42 H 3.89172 -0.64902 3.51002 0
M  V30 43 H -5.12948 -1.18179 -0.202274 0
M  V30 44 H -2.24167 -2.71725 -0.747308 0
M  V30 45 H -2.63482 -2.11073 2.34509 0
M  V30 46 H -1.92995 -3.66854 1.61743 0
M  V30 47 H -3.98926 -4.09001 0.303108 0
M  V30 48 H -4.75746 -2.61731 1.07997 0
M  V30 49 H -6.72619 2.80552 -1.81592 0
M  V30 50 H -1.97441 4.4329 -0.00226729 0
M  V30 51 H -1.90382 4.16075 -1.76659 0
M  V30 END ATOM
M  V30 BEGIN BOND
M  V30 1 1 1 2
M  V30 2 1 2 3
M  V30 3 2 3 4
M  V30 4 1 4 5
M  V30 5 1 5 6
M  V30 6 1 6 7
M  V30 7 1 7 8
M  V30 8 1 8 9
M  V30 9 1 9 10
M  V30 10 1 6 11
M  V30 11 2 11 12
M  V30 12 1 12 13
M  V30 13 1 12 14
M  V30 14 2 14 15
M  V30 15 1 15 16
M  V30 16 2 16 17
M  V30 17 1 16 18
M  V30 18 2 18 19
M  V30 19 1 19 20
M  V30 20 1 20 21
M  V30 21 1 21 22
M  V30 22 1 22 23
M  V30 23 1 18 24
M  V30 24 1 24 25
M  V30 25 2 24 26
M  V30 26 1 15 27
M  V30 27 1 27 28
M  V30 28 2 27 29
M  V30 29 1 29 30
M  V30 30 1 8 4
M  V30 31 1 29 11
M  V30 32 1 20 14
M  V30 33 1 23 21
M  V30 34 1 1 31
M  V30 35 1 1 32
M  V30 36 1 1 33
M  V30 37 1 5 34
M  V30 38 1 5 35
M  V30 39 1 7 36
M  V30 40 1 7 37
M  V30 41 1 8 38
M  V30 42 1 9 39
M  V30 43 1 9 40
M  V30 44 1 10 41
M  V30 45 1 10 42
M  V30 46 1 19 43
M  V30 47 1 21 44
M  V30 48 1 22 45
M  V30 49 1 22 46
M  V30 50 1 23 47
M  V30 51 1 23 48
M  V30 52 1 25 49
M  V30 53 1 28 50
M  V30 54 1 28 51
M  V30 END BOND
M  V30 END CTAB
M  END
