
     RDKit          3D

  0  0  0  0  0  0  0  0  0  0999 V3000
M  V30 BEGIN CTAB
M  V30 COUNTS 162 166 0 0 0
M  V30 BEGIN ATOM
M  V30 1 C 9.55313 2.60758 -3.02316 0 CFG=1
M  V30 2 N 8.3307 3.33352 -2.88069 0
M  V30 3 C 10.6861 3.59568 -2.87956 0
M  V30 4 C 10.6563 4.68662 -3.90503 0
M  V30 5 C 11.8313 5.57727 -3.60391 0
M  V30 6 O 12.9334 5.66819 -4.42568 0
M  V30 7 O 11.7796 6.25369 -2.55801 0
M  V30 8 C 9.75484 1.58496 -1.96662 0
M  V30 9 O 10.7769 0.867628 -2.0439 0
M  V30 10 N 8.86222 1.39603 -0.903596 0
M  V30 11 C 9.07112 0.409384 0.116787 0 CFG=1
M  V30 12 C 9.08422 0.960499 1.50502 0
M  V30 13 C 10.1907 1.95055 1.69222 0
M  V30 14 C 11.4745 1.70432 2.10418 0
M  V30 15 N 12.1601 2.83953 2.15289 0
M  V30 16 C 11.2849 3.81622 1.76173 0
M  V30 17 N 10.0783 3.25451 1.48411 0
M  V30 18 C 8.14138 -0.721113 0.00678917 0
M  V30 19 O 7.90578 -1.19131 -1.1637 0
M  V30 20 N 7.49205 -1.32782 1.08162 0
M  V30 21 C 6.6006 -2.42853 1.10782 0 CFG=1
M  V30 22 C 6.84284 -3.52407 2.07636 0
M  V30 23 C 8.15358 -4.20745 1.83599 0
M  V30 24 C 8.25988 -5.38795 1.08166 0
M  V30 25 N 9.55953 -5.70276 1.00608 0
M  V30 26 C 10.3084 -4.80541 1.66309 0
M  V30 27 C 9.42994 -3.88563 2.17315 0
M  V30 28 C 9.9538 -2.85095 2.91102 0
M  V30 29 C 11.3215 -2.74324 3.12537 0
M  V30 30 C 12.1948 -3.66375 2.61094 0
M  V30 31 C 11.6895 -4.71688 1.86606 0
M  V30 32 C 5.20617 -2.21479 0.731621 0
M  V30 33 O 4.93449 -1.58822 -0.351239 0
M  V30 34 N 4.11439 -2.66938 1.50485 0
M  V30 35 C 2.76559 -2.48473 1.06414 0 CFG=1
M  V30 36 C 1.74066 -3.12444 1.91718 0
M  V30 37 O 1.90465 -4.51555 2.03156 0
M  V30 38 C 2.43165 -1.00334 0.971932 0
M  V30 39 O 3.23471 -0.173259 1.3931 0
M  V30 40 N 1.19999 -0.697233 0.380574 0
M  V30 41 C 0.689128 0.643138 0.135664 0 CFG=1
M  V30 42 C 0.809252 0.987666 -1.31266 0
M  V30 43 C 0.105946 0.104416 -2.2546 0
M  V30 44 C -1.13045 0.396773 -2.72633 0
M  V30 45 C -1.72669 -0.476934 -3.63279 0
M  V30 46 C -1.07255 -1.63659 -4.05742 0
M  V30 47 O -1.6751 -2.49668 -4.96433 0
M  V30 48 C 0.166934 -1.9067 -3.56629 0
M  V30 49 C 0.773826 -1.04987 -2.66367 0
M  V30 50 C -0.57194 0.914459 0.805885 0
M  V30 51 O -0.905381 0.155417 1.77412 0
M  V30 52 N -1.43758 1.96949 0.434298 0
M  V30 53 C -2.67924 2.26633 1.06054 0
M  V30 54 C -3.69954 1.19428 1.02003 0
M  V30 55 O -4.78037 1.49084 1.63258 0
M  V30 56 N -3.57807 -0.0458289 0.406551 0
M  V30 57 C -4.65063 -1.11112 0.436417 0 CFG=1
M  V30 58 C -4.18683 -2.15571 1.30334 0
M  V30 59 C -4.81771 -3.4312 1.60572 0
M  V30 60 C -3.82144 -4.19272 2.556 0
M  V30 61 C -6.10952 -3.5256 2.3039 0
M  V30 62 C -5.91522 -0.466141 0.321011 0
M  V30 63 O -5.93909 0.414564 -0.684706 0
M  V30 64 N -7.10286 -0.528958 0.982338 0
M  V30 65 C -8.31803 0.245949 0.599883 0 CFG=1
M  V30 66 C -9.43623 -0.745026 0.379779 0
M  V30 67 C -9.04954 -1.73301 -0.730309 0
M  V30 68 C -10.1802 -2.72688 -0.949779 0
M  V30 69 N -11.411 -2.11236 -1.33205 0
M  V30 70 C -11.6066 -1.46712 -2.57089 0
M  V30 71 N -11.563 -2.18166 -3.81488 0
M  V30 72 N -11.8401 -0.202008 -2.6312 0
M  V30 73 C -8.61186 1.15307 1.72222 0
M  V30 74 O -7.88956 1.05644 2.79679 0
M  V30 75 N -9.60453 2.1478 1.78079 0
M  V30 76 C -9.79118 3.02214 2.97849 0
M  V30 77 C -11.2752 2.92599 3.15391 0
M  V30 78 C -11.8066 2.94047 1.73874 0
M  V30 79 C -10.6041 2.58934 0.855477 0 CFG=1
M  V30 80 C -10.1766 3.80112 0.077807 0
M  V30 81 O -9.07714 4.35437 0.287761 0
M  V30 82 N -11.0383 4.33693 -0.926118 0
M  V30 83 C -10.6391 5.4908 -1.67984 0
M  V30 84 C -11.6731 5.87953 -2.67571 0
M  V30 85 O -11.4475 6.96554 -3.49422 0
M  V30 86 O -12.7541 5.24101 -2.79075 0
M  V30 87 H 9.61062 2.1368 -3.99404 0
M  V30 88 H 8.27828 3.9087 -2.00809 0
M  V30 89 H 7.48791 2.78297 -3.06894 0
M  V30 90 H 10.7562 3.98027 -1.84333 0
M  V30 91 H 11.6213 2.99218 -3.02624 0
M  V30 92 H 9.72908 5.2994 -3.80232 0
M  V30 93 H 10.8087 4.29861 -4.9296 0
M  V30 94 H 13.575 6.43768 -4.35651 0
M  V30 95 H 8.01124 1.99294 -0.847059 0
M  V30 96 H 10.0899 -0.0676985 -0.120984 0
M  V30 97 H 8.13518 1.44639 1.7302 0
M  V30 98 H 9.28998 0.188007 2.2789 0
M  V30 99 H 11.8589 0.730719 2.34728 0
M  V30 100 H 13.1684 3.01512 2.42685 0
M  V30 101 H 11.4927 4.87929 1.67797 0
M  V30 102 H 7.68352 -0.887385 2.04776 0
M  V30 103 H 6.95792 -2.99019 0.0738722 0
M  V30 104 H 6.06522 -4.29585 2.09353 0
M  V30 105 H 6.89479 -3.12731 3.13096 0
M  V30 106 H 7.42447 -5.92325 0.646406 0
M  V30 107 H 9.99556 -6.53462 0.505064 0
M  V30 108 H 9.29666 -2.11668 3.33886 0
M  V30 109 H 11.7353 -1.92427 3.71213 0
M  V30 110 H 13.2759 -3.58141 2.77277 0
M  V30 111 H 12.3757 -5.42715 1.46546 0
M  V30 112 H 4.29696 -3.14531 2.4057 0
M  V30 113 H 2.65346 -2.82261 -0.00851515 0
M  V30 114 H 1.72477 -2.68825 2.94551 0
M  V30 115 H 0.724845 -2.91463 1.49489 0
M  V30 116 H 1.84042 -4.93631 1.13864 0
M  V30 117 H 0.565874 -1.49908 0.0710573 0
M  V30 118 H 1.4685 1.3444 0.660606 0
M  V30 119 H 0.47633 2.04977 -1.43286 0
M  V30 120 H 1.91675 1.02343 -1.52793 0
M  V30 121 H -1.69851 1.28259 -2.45877 0
M  V30 122 H -2.70517 -0.277166 -4.02867 0
M  V30 123 H -2.25423 -3.25671 -4.66083 0
M  V30 124 H 0.68671 -2.7989 -3.88132 0
M  V30 125 H 1.74234 -1.25042 -2.27283 0
M  V30 126 H -1.15158 2.59941 -0.376402 0
M  V30 127 H -3.09081 3.21551 0.61139 0
M  V30 128 H -2.48889 2.56865 2.14044 0
M  V30 129 H -2.72187 -0.286487 -0.139249 0
M  V30 130 H -4.43003 -1.54861 -0.672843 0
M  V30 131 H -3.08057 -2.39436 1.05806 0
M  V30 132 H -4.04053 -1.64934 2.35113 0
M  V30 133 H -4.88899 -4.07146 0.686446 0
M  V30 134 H -2.81237 -4.13402 2.10551 0
M  V30 135 H -3.90912 -3.71483 3.54212 0
M  V30 136 H -4.23898 -5.2077 2.59079 0
M  V30 137 H -6.99247 -3.52243 1.60189 0
M  V30 138 H -6.17118 -4.53071 2.81536 0
M  V30 139 H -6.24776 -2.79982 3.14997 0
M  V30 140 H -7.28111 -1.08834 1.82529 0
M  V30 141 H -8.09097 0.748384 -0.345156 0
M  V30 142 H -10.3174 -0.232432 0.00941015 0
M  V30 143 H -9.70113 -1.30087 1.28012 0
M  V30 144 H -8.80976 -1.135 -1.61471 0
M  V30 145 H -8.19902 -2.32005 -0.338765 0
M  V30 146 H -9.82374 -3.38705 -1.79499 0
M  V30 147 H -10.2918 -3.33674 -0.0445325 0
M  V30 148 H -12.2173 -2.1482 -0.651601 0
M  V30 149 H -12.2344 -1.92171 -4.5556 0
M  V30 150 H -10.8921 -2.94574 -4.01334 0
M  V30 151 H -11.8792 0.332099 -1.72589 0
M  V30 152 H -9.5317 4.05818 2.702 0
M  V30 153 H -9.20088 2.65022 3.83084 0
M  V30 154 H -11.6359 3.74683 3.77112 0
M  V30 155 H -11.4807 1.92589 3.62145 0
M  V30 156 H -12.6008 2.15484 1.64313 0
M  V30 157 H -12.163 3.94492 1.45307 0
M  V30 158 H -10.9566 1.8711 0.127549 0
M  V30 159 H -11.9447 3.88699 -1.10272 0
M  V30 160 H -9.69798 5.30645 -2.25811 0
M  V30 161 H -10.4914 6.35006 -0.980758 0
M  V30 162 H -12.1963 7.61812 -3.75301 0
M  V30 END ATOM
M  V30 BEGIN BOND
M  V30 1 1 1 2
M  V30 2 1 1 3
M  V30 3 1 3 4
M  V30 4 1 4 5
M  V30 5 1 5 6
M  V30 6 2 5 7
M  V30 7 1 1 8
M  V30 8 2 8 9
M  V30 9 1 8 10
M  V30 10 1 10 11
M  V30 11 1 11 12
M  V30 12 1 12 13
M  V30 13 2 13 14
M  V30 14 1 14 15
M  V30 15 1 15 16
M  V30 16 2 16 17
M  V30 17 1 11 18
M  V30 18 2 18 19
M  V30 19 1 18 20
M  V30 20 1 20 21
M  V30 21 1 21 22
M  V30 22 1 22 23
M  V30 23 2 23 24
M  V30 24 1 24 25
M  V30 25 1 25 26
M  V30 26 2 26 27
M  V30 27 1 27 28
M  V30 28 2 28 29
M  V30 29 1 29 30
M  V30 30 2 30 31
M  V30 31 1 21 32
M  V30 32 2 32 33
M  V30 33 1 32 34
M  V30 34 1 34 35
M  V30 35 1 35 36
M  V30 36 1 36 37
M  V30 37 1 35 38
M  V30 38 2 38 39
M  V30 39 1 38 40
M  V30 40 1 40 41
M  V30 41 1 41 42
M  V30 42 1 42 43
M  V30 43 2 43 44
M  V30 44 1 44 45
M  V30 45 2 45 46
M  V30 46 1 46 47
M  V30 47 1 46 48
M  V30 48 2 48 49
M  V30 49 1 41 50
M  V30 50 2 50 51
M  V30 51 1 50 52
M  V30 52 1 52 53
M  V30 53 1 53 54
M  V30 54 2 54 55
M  V30 55 1 54 56
M  V30 56 1 56 57
M  V30 57 1 57 58
M  V30 58 1 58 59
M  V30 59 1 59 60
M  V30 60 1 59 61
M  V30 61 1 57 62
M  V30 62 2 62 63
M  V30 63 1 62 64
M  V30 64 1 64 65
M  V30 65 1 65 66
M  V30 66 1 66 67
M  V30 67 1 67 68
M  V30 68 1 68 69
M  V30 69 1 69 70
M  V30 70 1 70 71
M  V30 71 2 70 72 CFG=2
M  V30 72 1 65 73
M  V30 73 2 73 74
M  V30 74 1 73 75
M  V30 75 1 75 76
M  V30 76 1 76 77
M  V30 77 1 77 78
M  V30 78 1 78 79
M  V30 79 1 79 80
M  V30 80 2 80 81
M  V30 81 1 80 82
M  V30 82 1 82 83
M  V30 83 1 83 84
M  V30 84 1 84 85
M  V30 85 2 84 86
M  V30 86 1 17 13
M  V30 87 1 27 23
M  V30 88 1 49 43
M  V30 89 1 79 75
M  V30 90 1 31 26
M  V30 91 1 1 87 CFG=3
M  V30 92 1 2 88
M  V30 93 1 2 89
M  V30 94 1 3 90
M  V30 95 1 3 91
M  V30 96 1 4 92
M  V30 97 1 4 93
M  V30 98 1 6 94
M  V30 99 1 10 95
M  V30 100 1 11 96 CFG=3
M  V30 101 1 12 97
M  V30 102 1 12 98
M  V30 103 1 14 99
M  V30 104 1 15 100
M  V30 105 1 16 101
M  V30 106 1 20 102
M  V30 107 1 21 103 CFG=3
M  V30 108 1 22 104
M  V30 109 1 22 105
M  V30 110 1 24 106
M  V30 111 1 25 107
M  V30 112 1 28 108
M  V30 113 1 29 109
M  V30 114 1 30 110
M  V30 115 1 31 111
M  V30 116 1 34 112
M  V30 117 1 35 113 CFG=3
M  V30 118 1 36 114
M  V30 119 1 36 115
M  V30 120 1 37 116
M  V30 121 1 40 117
M  V30 122 1 41 118 CFG=1
M  V30 123 1 42 119
M  V30 124 1 42 120
M  V30 125 1 44 121
M  V30 126 1 45 122
M  V30 127 1 47 123
M  V30 128 1 48 124
M  V30 129 1 49 125
M  V30 130 1 52 126
M  V30 131 1 53 127
M  V30 132 1 53 128
M  V30 133 1 56 129
M  V30 134 1 57 130 CFG=3
M  V30 135 1 58 131
M  V30 136 1 58 132
M  V30 137 1 59 133
M  V30 138 1 60 134
M  V30 139 1 60 135
M  V30 140 1 60 136
M  V30 141 1 61 137
M  V30 142 1 61 138
M  V30 143 1 61 139
M  V30 144 1 64 140
M  V30 145 1 65 141 CFG=3
M  V30 146 1 66 142
M  V30 147 1 66 143
M  V30 148 1 67 144
M  V30 149 1 67 145
M  V30 150 1 68 146
M  V30 151 1 68 147
M  V30 152 1 69 148
M  V30 153 1 71 149
M  V30 154 1 71 150
M  V30 155 1 72 151
M  V30 156 1 76 152
M  V30 157 1 76 153
M  V30 158 1 77 154
M  V30 159 1 77 155
M  V30 160 1 78 156
M  V30 161 1 78 157
M  V30 162 1 79 158 CFG=3
M  V30 163 1 82 159
M  V30 164 1 83 160
M  V30 165 1 83 161
M  V30 166 1 85 162
M  V30 END BOND
M  V30 END CTAB
M  END
