
     RDKit          3D

  0  0  0  0  0  0  0  0  0  0999 V3000
M  V30 BEGIN CTAB
M  V30 COUNTS 24 24 0 0 0
M  V30 BEGIN ATOM
M  V30 1 N -2.43105 -1.32512 1.28545 0
M  V30 2 C -2.42796 0.0906501 1.11172 0
M  V30 3 C -1.34797 0.60014 0.212032 0
M  V30 4 C -1.35393 -0.00198144 -1.15474 0
M  V30 5 C 0.0868742 0.239511 -1.61189 0
M  V30 6 C 0.709925 0.827563 -0.357708 0
M  V30 7 O -0.0672022 0.291361 0.668871 0
M  V30 8 C 2.12375 0.396949 -0.268385 0
M  V30 9 O 2.91181 0.822067 -1.14413 0
M  V30 10 N 2.60346 -0.453085 0.741415 0
M  V30 11 N 3.94637 -0.819372 0.766823 0
M  V30 12 H -2.85388 -1.75298 0.431319 0
M  V30 13 H -3.10797 -1.5445 2.06506 0
M  V30 14 H -2.34107 0.62799 2.07894 0
M  V30 15 H -3.39995 0.385352 0.669628 0
M  V30 16 H -1.41052 1.68341 0.121514 0
M  V30 17 H -1.51345 -1.08922 -1.17155 0
M  V30 18 H -2.06129 0.508837 -1.84917 0
M  V30 19 H 0.606474 -0.705243 -1.83886 0
M  V30 20 H 0.0862237 0.959439 -2.4553 0
M  V30 21 H 0.592629 1.92833 -0.318862 0
M  V30 22 H 1.9489 -0.803962 1.46568 0
M  V30 23 H 4.59106 0.00128703 0.603717 0
M  V30 24 H 4.10875 -1.46565 -0.0515694 0
M  V30 END ATOM
M  V30 BEGIN BOND
M  V30 1 1 1 2
M  V30 2 1 2 3
M  V30 3 1 3 4
M  V30 4 1 4 5
M  V30 5 1 5 6
M  V30 6 1 6 7
M  V30 7 1 6 8
M  V30 8 2 8 9
M  V30 9 1 8 10
M  V30 10 1 10 11
M  V30 11 1 7 3
M  V30 12 1 1 12
M  V30 13 1 1 13
M  V30 14 1 2 14
M  V30 15 1 2 15
M  V30 16 1 3 16
M  V30 17 1 4 17
M  V30 18 1 4 18
M  V30 19 1 5 19
M  V30 20 1 5 20
M  V30 21 1 6 21
M  V30 22 1 10 22
M  V30 23 1 11 23
M  V30 24 1 11 24
M  V30 END BOND
M  V30 END CTAB
M  END
