
     RDKit          3D

  0  0  0  0  0  0  0  0  0  0999 V3000
M  V30 BEGIN CTAB
M  V30 COUNTS 22 23 0 0 0
M  V30 BEGIN ATOM
M  V30 1 F -2.99248 -1.85791 1.84933 0
M  V30 2 C -2.63132 -0.948901 0.890799 0
M  V30 3 C -3.57118 -0.266703 0.16578 0
M  V30 4 C -3.18682 0.641466 -0.791766 0
M  V30 5 C -1.82991 0.864158 -1.02067 0
M  V30 6 C -0.858115 0.186457 -0.300254 0
M  V30 7 C -1.28162 -0.698461 0.632548 0
M  V30 8 C 0.534859 0.480956 -0.604848 0
M  V30 9 N 0.913277 1.38528 -1.55828 0
M  V30 10 N 2.22261 1.44399 -1.61423 0
M  V30 11 C 2.73877 0.600892 -0.721328 0
M  V30 12 N 1.67707 0.0143691 -0.106737 0
M  V30 13 N 1.81658 -0.943417 0.905513 0
M  V30 14 N 4.11502 0.325762 -0.424332 0
M  V30 15 H -4.62572 -0.471484 0.37716 0
M  V30 16 H -3.93719 1.16774 -1.3512 0
M  V30 17 H -1.55141 1.58088 -1.77647 0
M  V30 18 H -0.581474 -1.25486 1.22359 0
M  V30 19 H 1.75032 -0.759214 1.91626 0
M  V30 20 H 2.00312 -1.92223 0.59582 0
M  V30 21 H 4.44705 -0.652815 -0.282307 0
M  V30 22 H 4.82857 1.08404 -0.339851 0
M  V30 END ATOM
M  V30 BEGIN BOND
M  V30 1 1 1 2
M  V30 2 2 2 3
M  V30 3 1 3 4
M  V30 4 2 4 5
M  V30 5 1 5 6
M  V30 6 2 6 7
M  V30 7 1 6 8
M  V30 8 2 8 9
M  V30 9 1 9 10
M  V30 10 2 10 11
M  V30 11 1 11 12
M  V30 12 1 12 13
M  V30 13 1 11 14
M  V30 14 1 7 2
M  V30 15 1 12 8
M  V30 16 1 3 15
M  V30 17 1 4 16
M  V30 18 1 5 17
M  V30 19 1 7 18
M  V30 20 1 13 19
M  V30 21 1 13 20
M  V30 22 1 14 21
M  V30 23 1 14 22
M  V30 END BOND
M  V30 END CTAB
M  END
