
     RDKit          3D

  0  0  0  0  0  0  0  0  0  0999 V3000
M  V30 BEGIN CTAB
M  V30 COUNTS 21 21 0 0 0
M  V30 BEGIN ATOM
M  V30 1 C 0.46068 -2.53923 -0.0332533 0
M  V30 2 C 0.37906 -1.54932 -1.15283 0
M  V30 3 C 0.456693 -0.128177 -0.625802 0
M  V30 4 N 1.54891 0.565331 -0.659651 0
M  V30 5 C 1.57823 1.79651 -0.175974 0
M  V30 6 S -0.0302408 2.00225 0.363219 0
M  V30 7 C -0.652559 0.468255 -0.0723669 0
M  V30 8 C -2.03295 -0.0655155 0.0989113 0
M  V30 9 N -2.84273 0.955208 0.735036 0
M  V30 10 N 2.70691 2.66101 -0.143836 0
M  V30 11 H 1.21544 -2.18607 0.697425 0
M  V30 12 H -0.515881 -2.72152 0.448761 0
M  V30 13 H 0.796239 -3.54393 -0.423541 0
M  V30 14 H 1.22597 -1.67937 -1.84133 0
M  V30 15 H -0.611364 -1.69431 -1.63381 0
M  V30 16 H -2.02417 -0.941289 0.742073 0
M  V30 17 H -2.48117 -0.233749 -0.913786 0
M  V30 18 H -2.83118 1.84744 0.20811 0
M  V30 19 H -2.5718 1.04232 1.74229 0
M  V30 20 H 3.258 2.81095 -1.00059 0
M  V30 21 H 2.96791 3.1332 0.735659 0
M  V30 END ATOM
M  V30 BEGIN BOND
M  V30 1 1 1 2
M  V30 2 1 2 3
M  V30 3 1 3 4
M  V30 4 2 4 5
M  V30 5 1 5 6
M  V30 6 1 6 7
M  V30 7 1 7 8
M  V30 8 1 8 9
M  V30 9 1 5 10
M  V30 10 2 7 3
M  V30 11 1 1 11
M  V30 12 1 1 12
M  V30 13 1 1 13
M  V30 14 1 2 14
M  V30 15 1 2 15
M  V30 16 1 8 16
M  V30 17 1 8 17
M  V30 18 1 9 18
M  V30 19 1 9 19
M  V30 20 1 10 20
M  V30 21 1 10 21
M  V30 END BOND
M  V30 END CTAB
M  END
