
     RDKit          3D

  0  0  0  0  0  0  0  0  0  0999 V3000
M  V30 BEGIN CTAB
M  V30 COUNTS 23 24 0 0 0
M  V30 BEGIN ATOM
M  V30 1 N 3.88895 -1.50596 0.783276 0
M  V30 2 C 3.3339 -1.07771 -0.463509 0
M  V30 3 C 2.17583 -0.157218 -0.311781 0
M  V30 4 S 2.13234 1.54274 -0.187862 0
M  V30 5 C 0.440546 1.75523 -0.0489439 0
M  V30 6 C 0.00467966 0.455366 -0.109344 0
M  V30 7 N 0.897339 -0.477696 -0.240931 0
M  V30 8 C -1.44897 0.136055 -0.0256976 0
M  V30 9 O -2.43473 0.979075 0.106285 0
M  V30 10 N -3.57513 0.379636 0.147117 0
M  V30 11 C -3.36223 -0.93837 0.0379232 0
M  V30 12 N -2.03056 -1.07951 -0.069503 0
M  V30 13 N -4.34712 -1.98499 0.0356138 0
M  V30 14 C -0.37639 3.00399 0.0995312 0
M  V30 15 H 3.59375 -2.45995 1.06055 0
M  V30 16 H 4.89598 -1.32059 0.892509 0
M  V30 17 H 3.06211 -1.97272 -1.07901 0
M  V30 18 H 4.16235 -0.585463 -1.04426 0
M  V30 19 H -5.2978 -1.82071 0.389725 0
M  V30 20 H -4.07534 -2.91227 -0.332694 0
M  V30 21 H 0.32813 3.86046 0.052215 0
M  V30 22 H -0.890587 3.04684 1.06721 0
M  V30 23 H -1.07702 3.13378 -0.758412 0
M  V30 END ATOM
M  V30 BEGIN BOND
M  V30 1 1 1 2
M  V30 2 1 2 3
M  V30 3 1 3 4
M  V30 4 1 4 5
M  V30 5 2 5 6
M  V30 6 1 6 7
M  V30 7 1 6 8
M  V30 8 1 8 9
M  V30 9 1 9 10
M  V30 10 2 10 11
M  V30 11 1 11 12
M  V30 12 1 11 13
M  V30 13 1 5 14
M  V30 14 2 7 3
M  V30 15 2 12 8
M  V30 16 1 1 15
M  V30 17 1 1 16
M  V30 18 1 2 17
M  V30 19 1 2 18
M  V30 20 1 13 19
M  V30 21 1 13 20
M  V30 22 1 14 21
M  V30 23 1 14 22
M  V30 24 1 14 23
M  V30 END BOND
M  V30 END CTAB
M  END
