
     RDKit          3D

  0  0  0  0  0  0  0  0  0  0999 V3000
M  V30 BEGIN CTAB
M  V30 COUNTS 17 18 0 0 0
M  V30 BEGIN ATOM
M  V30 1 N 2.49531 -0.168947 -0.0825281 0
M  V30 2 C 1.09803 -0.368986 -0.0680309 0
M  V30 3 C 0.281778 0.733602 0.0693328 0
M  V30 4 N 0.791416 2.02692 0.19307 0
M  V30 5 C -1.11439 0.58723 0.0894626 0
M  V30 6 C -1.73076 -0.628996 -0.0233808 0
M  V30 7 C -0.899085 -1.73145 -0.161122 0
M  V30 8 C 0.454108 -1.5803 -0.179651 0
M  V30 9 N -3.04325 -0.620751 0.0109702 0
M  V30 10 N -3.69253 0.471303 0.14298 0
M  V30 11 S -2.45268 1.63791 0.234673 0
M  V30 12 H 3.02095 -0.496854 0.777493 0
M  V30 13 H 2.99914 0.278314 -0.893056 0
M  V30 14 H 1.16421 2.51348 -0.653113 0
M  V30 15 H 0.82069 2.53698 1.08856 0
M  V30 16 H -1.31217 -2.74613 -0.257852 0
M  V30 17 H 1.11923 -2.44332 -0.287803 0
M  V30 END ATOM
M  V30 BEGIN BOND
M  V30 1 1 1 2
M  V30 2 2 2 3
M  V30 3 1 3 4
M  V30 4 1 3 5
M  V30 5 2 5 6
M  V30 6 1 6 7
M  V30 7 2 7 8
M  V30 8 1 6 9
M  V30 9 2 9 10
M  V30 10 1 10 11
M  V30 11 1 8 2
M  V30 12 1 11 5
M  V30 13 1 1 12
M  V30 14 1 1 13
M  V30 15 1 4 14
M  V30 16 1 4 15
M  V30 17 1 7 16
M  V30 18 1 8 17
M  V30 END BOND
M  V30 END CTAB
M  END
