
     RDKit          3D

  0  0  0  0  0  0  0  0  0  0999 V3000
M  V30 BEGIN CTAB
M  V30 COUNTS 30 32 0 0 0
M  V30 BEGIN ATOM
M  V30 1 N -2.79204 3.44418 -0.40123 0
M  V30 2 C -1.85557 2.7828 -0.190669 0
M  V30 3 C -0.687086 1.93745 0.0541365 0
M  V30 4 C 0.0806622 2.27064 1.08935 0
M  V30 5 N -0.272924 3.39761 1.87279 0
M  V30 6 O 1.19847 1.49878 1.35912 0
M  V30 7 C 1.4747 0.409763 0.541193 0
M  V30 8 C 0.705826 0.0406543 -0.530506 0
M  V30 9 C -0.505776 0.830903 -0.864654 0
M  V30 10 C -1.65929 -0.147597 -0.799914 0
M  V30 11 C -2.422 -0.490258 0.285931 0
M  V30 12 C -3.3954 -1.38518 0.0932126 0
M  V30 13 C -3.55744 -1.88983 -1.16582 0
M  V30 14 S -2.3342 -1.09111 -2.04784 0
M  V30 15 C 1.0219 -1.06865 -1.33261 0
M  V30 16 C 2.13629 -1.79796 -1.0249 0
M  V30 17 C 2.94221 -1.46509 0.0454233 0
M  V30 18 C 2.60918 -0.376097 0.811742 0
M  V30 19 N 4.09642 -2.23731 0.347605 0
M  V30 20 H 0.397385 4.16587 1.99061 0
M  V30 21 H -1.19737 3.43608 2.31628 0
M  V30 22 H -0.467842 1.17816 -1.93992 0
M  V30 23 H -2.20289 -0.0162104 1.26969 0
M  V30 24 H -4.06824 -1.72853 0.90946 0
M  V30 25 H -4.30809 -2.63167 -1.49288 0
M  V30 26 H 0.366559 -1.30374 -2.1693 0
M  V30 27 H 2.40725 -2.66267 -1.62746 0
M  V30 28 H 3.21188 -0.0631409 1.67523 0
M  V30 29 H 4.9881 -1.75423 0.548542 0
M  V30 30 H 4.08931 -3.2836 0.377399 0
M  V30 END ATOM
M  V30 BEGIN BOND
M  V30 1 3 1 2
M  V30 2 1 2 3
M  V30 3 2 3 4
M  V30 4 1 4 5
M  V30 5 1 4 6
M  V30 6 1 6 7
M  V30 7 2 7 8
M  V30 8 1 8 9
M  V30 9 1 9 10
M  V30 10 2 10 11
M  V30 11 1 11 12
M  V30 12 2 12 13
M  V30 13 1 13 14
M  V30 14 1 8 15
M  V30 15 2 15 16
M  V30 16 1 16 17
M  V30 17 2 17 18
M  V30 18 1 17 19
M  V30 19 1 9 3
M  V30 20 1 14 10
M  V30 21 1 18 7
M  V30 22 1 5 20
M  V30 23 1 5 21
M  V30 24 1 9 22
M  V30 25 1 11 23
M  V30 26 1 12 24
M  V30 27 1 13 25
M  V30 28 1 15 26
M  V30 29 1 16 27
M  V30 30 1 18 28
M  V30 31 1 19 29
M  V30 32 1 19 30
M  V30 END BOND
M  V30 END CTAB
M  END
