
     RDKit          3D

  0  0  0  0  0  0  0  0  0  0999 V3000
M  V30 BEGIN CTAB
M  V30 COUNTS 25 25 0 0 0
M  V30 BEGIN ATOM
M  V30 1 C -2.85462 -0.168192 1.17829 0
M  V30 2 O -2.42991 -0.591324 -0.0358742 0
M  V30 3 C -1.18194 -0.291844 -0.454374 0
M  V30 4 C -0.867464 -0.834122 -1.84145 0
M  V30 5 C -0.137773 -0.721915 0.547651 0
M  V30 6 N 0.641768 0.48537 0.244533 0
M  V30 7 C -0.612296 1.07404 -0.184686 0
M  V30 8 C 2.00351 0.791934 0.368452 0
M  V30 9 N 2.93679 0.0282194 -0.0830997 0
M  V30 10 N 2.75155 -1.16882 -0.736448 0
M  V30 11 N 2.41018 1.99151 1.01587 0
M  V30 12 H -2.84476 0.929134 1.33408 0
M  V30 13 H -2.35919 -0.754281 1.97425 0
M  V30 14 H -3.9423 -0.484558 1.26254 0
M  V30 15 H -0.768291 -1.94347 -1.71538 0
M  V30 16 H -1.71586 -0.617337 -2.51515 0
M  V30 17 H 0.0816937 -0.40351 -2.21606 0
M  V30 18 H 0.38063 -1.63901 0.1981 0
M  V30 19 H -0.39687 -0.682241 1.60155 0
M  V30 20 H -1.10534 1.673 0.577517 0
M  V30 21 H -0.523393 1.6566 -1.13107 0
M  V30 22 H 2.95301 -2.05386 -0.221564 0
M  V30 23 H 2.42275 -1.21482 -1.71005 0
M  V30 24 H 3.37593 2.3981 0.893184 0
M  V30 25 H 1.7822 2.54139 1.64918 0
M  V30 END ATOM
M  V30 BEGIN BOND
M  V30 1 1 1 2
M  V30 2 1 2 3
M  V30 3 1 3 4
M  V30 4 1 3 5
M  V30 5 1 5 6
M  V30 6 1 6 7
M  V30 7 1 6 8
M  V30 8 2 8 9 CFG=2
M  V30 9 1 9 10
M  V30 10 1 8 11
M  V30 11 1 7 3
M  V30 12 1 1 12
M  V30 13 1 1 13
M  V30 14 1 1 14
M  V30 15 1 4 15
M  V30 16 1 4 16
M  V30 17 1 4 17
M  V30 18 1 5 18
M  V30 19 1 5 19
M  V30 20 1 7 20
M  V30 21 1 7 21
M  V30 22 1 10 22
M  V30 23 1 10 23
M  V30 24 1 11 24
M  V30 25 1 11 25
M  V30 END BOND
M  V30 END CTAB
M  END
