
     RDKit          3D

  0  0  0  0  0  0  0  0  0  0999 V3000
M  V30 BEGIN CTAB
M  V30 COUNTS 25 25 0 0 0
M  V30 BEGIN ATOM
M  V30 1 O -4.20651 0.0828235 0.318065 0
M  V30 2 C -2.94265 0.545857 0.10693 0
M  V30 3 C -2.18649 -0.1598 -1.03746 0
M  V30 4 C -0.947489 0.242058 -0.19588 0
M  V30 5 C -1.8361 -0.084319 0.984506 0
M  V30 6 C 0.247263 -0.591273 -0.414043 0
M  V30 7 N 1.30287 -0.0734867 0.438483 0
M  V30 8 C 2.67621 -0.469518 0.217855 0
M  V30 9 N 3.54369 0.473445 0.018704 0
M  V30 10 N 3.22258 1.82257 0.0108169 0
M  V30 11 N 3.08723 -1.80631 0.2001 0
M  V30 12 H -4.73783 0.254092 -0.512974 0
M  V30 13 H -2.82922 1.6393 0.0382474 0
M  V30 14 H -2.23601 0.34853 -1.99518 0
M  V30 15 H -2.36932 -1.22784 -0.967109 0
M  V30 16 H -0.762792 1.33872 -0.313317 0
M  V30 17 H -1.60982 0.500216 1.88824 0
M  V30 18 H -1.97179 -1.16454 1.07784 0
M  V30 19 H 0.0228833 -1.62557 0.000853022 0
M  V30 20 H 0.629066 -0.659463 -1.44426 0
M  V30 21 H 1.15951 0.581536 1.22859 0
M  V30 22 H 2.95079 2.25337 -0.902073 0
M  V30 23 H 3.23871 2.40037 0.878146 0
M  V30 24 H 4.12419 -2.01153 0.0305207 0
M  V30 25 H 2.43102 -2.60923 0.344404 0
M  V30 END ATOM
M  V30 BEGIN BOND
M  V30 1 1 1 2
M  V30 2 1 2 3
M  V30 3 1 3 4
M  V30 4 1 4 5
M  V30 5 1 4 6
M  V30 6 1 6 7
M  V30 7 1 7 8
M  V30 8 2 8 9 CFG=2
M  V30 9 1 9 10
M  V30 10 1 8 11
M  V30 11 1 5 2
M  V30 12 1 1 12
M  V30 13 1 2 13
M  V30 14 1 3 14
M  V30 15 1 3 15
M  V30 16 1 4 16
M  V30 17 1 5 17
M  V30 18 1 5 18
M  V30 19 1 6 19
M  V30 20 1 6 20
M  V30 21 1 7 21
M  V30 22 1 10 22
M  V30 23 1 10 23
M  V30 24 1 11 24
M  V30 25 1 11 25
M  V30 END BOND
M  V30 END CTAB
M  END
