
     RDKit          3D

  0  0  0  0  0  0  0  0  0  0999 V3000
M  V30 BEGIN CTAB
M  V30 COUNTS 42 43 0 0 0
M  V30 BEGIN ATOM
M  V30 1 C 0.904676 1.41213 -2.9616 0
M  V30 2 C 1.44887 0.248558 -2.09642 0
M  V30 3 C 2.35349 0.875305 -1.12076 0
M  V30 4 C 3.0451 0.0504487 -0.151558 0
M  V30 5 C 3.16356 -1.303 -0.103104 0
M  V30 6 C 3.8495 -1.96869 0.894021 0
M  V30 7 C 4.45879 -1.26221 1.90861 0
M  V30 8 C 4.3599 0.107966 1.89137 0
M  V30 9 C 3.67519 0.744245 0.893572 0
M  V30 10 N 1.71377 1.97449 -0.393433 0
M  V30 11 C 0.2706 -0.459184 -1.59156 0
M  V30 12 O 0.0919474 -1.68909 -1.91579 0
M  V30 13 N -0.727754 0.0924132 -0.754791 0
M  V30 14 C -1.85924 -0.69597 -0.307551 0
M  V30 15 C -2.7926 0.0767775 0.565692 0
M  V30 16 C -3.92169 -0.854534 0.960762 0
M  V30 17 C -5.01672 -0.372628 1.83476 0
M  V30 18 C -5.28752 -0.666596 0.411301 0
M  V30 19 N -2.17551 0.552332 1.77957 0
M  V30 20 H -0.00422112 1.81308 -2.51501 0
M  V30 21 H 0.764149 1.06589 -4.01511 0
M  V30 22 H 1.65939 2.22427 -3.00888 0
M  V30 23 H 2.03953 -0.353138 -2.81289 0
M  V30 24 H 3.15516 1.40388 -1.7253 0
M  V30 25 H 2.71176 -1.86871 -0.876381 0
M  V30 26 H 3.92613 -3.03592 0.906796 0
M  V30 27 H 5.00337 -1.76228 2.70309 0
M  V30 28 H 4.84685 0.656285 2.7003 0
M  V30 29 H 3.63944 1.82413 0.945305 0
M  V30 30 H 1.39812 1.71312 0.537645 0
M  V30 31 H 1.10609 2.56281 -0.97016 0
M  V30 32 H -0.686093 1.08152 -0.436234 0
M  V30 33 H -1.52241 -1.59159 0.28 0
M  V30 34 H -2.43477 -1.05662 -1.18371 0
M  V30 35 H -3.16701 0.957625 0.00436037 0
M  V30 36 H -3.56799 -1.90248 1.13767 0
M  V30 37 H -5.04589 0.683119 2.18651 0
M  V30 38 H -5.39424 -1.08118 2.61319 0
M  V30 39 H -5.51828 0.201297 -0.225183 0
M  V30 40 H -5.84719 -1.59356 0.122535 0
M  V30 41 H -2.65682 1.37664 2.17986 0
M  V30 42 H -1.95942 -0.180961 2.46307 0
M  V30 END ATOM
M  V30 BEGIN BOND
M  V30 1 1 1 2
M  V30 2 1 2 3
M  V30 3 1 3 4
M  V30 4 2 4 5
M  V30 5 1 5 6
M  V30 6 2 6 7
M  V30 7 1 7 8
M  V30 8 2 8 9
M  V30 9 1 3 10
M  V30 10 1 2 11
M  V30 11 2 11 12
M  V30 12 1 11 13
M  V30 13 1 13 14
M  V30 14 1 14 15
M  V30 15 1 15 16
M  V30 16 1 16 17
M  V30 17 1 17 18
M  V30 18 1 15 19
M  V30 19 1 9 4
M  V30 20 1 18 16
M  V30 21 1 1 20
M  V30 22 1 1 21
M  V30 23 1 1 22
M  V30 24 1 2 23
M  V30 25 1 3 24
M  V30 26 1 5 25
M  V30 27 1 6 26
M  V30 28 1 7 27
M  V30 29 1 8 28
M  V30 30 1 9 29
M  V30 31 1 10 30
M  V30 32 1 10 31
M  V30 33 1 13 32
M  V30 34 1 14 33
M  V30 35 1 14 34
M  V30 36 1 15 35
M  V30 37 1 16 36
M  V30 38 1 17 37
M  V30 39 1 17 38
M  V30 40 1 18 39
M  V30 41 1 18 40
M  V30 42 1 19 41
M  V30 43 1 19 42
M  V30 END BOND
M  V30 END CTAB
M  END
