
     RDKit          3D

  0  0  0  0  0  0  0  0  0  0999 V3000
M  V30 BEGIN CTAB
M  V30 COUNTS 27 28 0 0 0
M  V30 BEGIN ATOM
M  V30 1 N 3.14219 1.45658 -0.392125 0
M  V30 2 N 1.96948 0.726451 -0.201955 0
M  V30 3 C 1.93487 -0.443858 0.529821 0
M  V30 4 C 3.10266 -1.13337 1.12057 0
M  V30 5 N 0.672426 -0.829575 0.52927 0
M  V30 6 C -0.119324 0.023238 -0.166187 0
M  V30 7 C 0.722563 1.01769 -0.62377 0
M  V30 8 N 0.336142 2.15129 -1.35076 0
M  V30 9 C -1.54199 -0.208835 -0.513275 0
M  V30 10 C -2.31779 0.874082 0.209423 0
M  V30 11 S -3.92424 0.100821 0.456246 0
M  V30 12 C -3.37605 -1.65288 0.293327 0
M  V30 13 C -1.90771 -1.50006 0.208957 0
M  V30 14 H 3.78504 1.32172 -1.1887 0
M  V30 15 H 3.44703 2.21278 0.282088 0
M  V30 16 H 2.79963 -1.99368 1.72907 0
M  V30 17 H 3.64981 -1.54834 0.217242 0
M  V30 18 H 3.69896 -0.377995 1.64816 0
M  V30 19 H 0.45108 2.26155 -2.35515 0
M  V30 20 H -0.119079 2.93682 -0.797305 0
M  V30 21 H -1.67303 -0.266505 -1.58633 0
M  V30 22 H -1.84862 1.30579 1.06154 0
M  V30 23 H -2.48587 1.64866 -0.612822 0
M  V30 24 H -3.63993 -2.19853 1.21482 0
M  V30 25 H -3.87116 -2.05324 -0.586875 0
M  V30 26 H -1.43936 -1.51 1.22199 0
M  V30 27 H -1.44771 -2.32062 -0.347264 0
M  V30 END ATOM
M  V30 BEGIN BOND
M  V30 1 1 1 2
M  V30 2 1 2 3
M  V30 3 1 3 4
M  V30 4 2 3 5
M  V30 5 1 5 6
M  V30 6 2 6 7
M  V30 7 1 7 8
M  V30 8 1 6 9
M  V30 9 1 9 10
M  V30 10 1 10 11
M  V30 11 1 11 12
M  V30 12 1 12 13
M  V30 13 1 7 2
M  V30 14 1 13 9
M  V30 15 1 1 14
M  V30 16 1 1 15
M  V30 17 1 4 16
M  V30 18 1 4 17
M  V30 19 1 4 18
M  V30 20 1 8 19
M  V30 21 1 8 20
M  V30 22 1 9 21
M  V30 23 1 10 22
M  V30 24 1 10 23
M  V30 25 1 12 24
M  V30 26 1 12 25
M  V30 27 1 13 26
M  V30 28 1 13 27
M  V30 END BOND
M  V30 END CTAB
M  END
