
     RDKit          3D

  0  0  0  0  0  0  0  0  0  0999 V3000
M  V30 BEGIN CTAB
M  V30 COUNTS 28 28 0 0 0
M  V30 BEGIN ATOM
M  V30 1 C 1.67084 -1.07191 1.65497 0
M  V30 2 N 1.35623 -0.104005 0.625363 0
M  V30 3 C -0.0195078 0.15164 0.322739 0
M  V30 4 C -0.530578 1.44697 0.455541 0
M  V30 5 C -1.84574 1.73609 0.17022 0
M  V30 6 C -2.68507 0.717149 -0.259 0
M  V30 7 C -2.221 -0.581919 -0.406046 0
M  V30 8 C -0.897641 -0.818044 -0.107851 0
M  V30 9 F -0.432915 -2.08288 -0.241416 0
M  V30 10 N -3.10472 -1.60546 -0.849945 0
M  V30 11 N -4.05267 1.01636 -0.557434 0
M  V30 12 C 2.37502 0.613215 -0.107686 0
M  V30 13 C 3.14696 -0.298909 -1.0084 0
M  V30 14 O 4.10962 0.497407 -1.67233 0
M  V30 15 H 0.866511 -1.03717 2.43728 0
M  V30 16 H 1.61522 -2.07187 1.1903 0
M  V30 17 H 2.60954 -0.859771 2.1815 0
M  V30 18 H 0.162908 2.19978 0.795484 0
M  V30 19 H -2.2188 2.76471 0.281649 0
M  V30 20 H -4.12879 -1.53695 -0.682186 0
M  V30 21 H -2.76661 -2.4546 -1.356 0
M  V30 22 H -4.58462 0.414606 -1.22228 0
M  V30 23 H -4.55345 1.81757 -0.138693 0
M  V30 24 H 3.08244 1.06723 0.622972 0
M  V30 25 H 1.90399 1.43104 -0.695406 0
M  V30 26 H 3.69666 -1.08936 -0.448629 0
M  V30 27 H 2.50675 -0.726221 -1.8104 0
M  V30 28 H 4.93942 0.465315 -1.17082 0
M  V30 END ATOM
M  V30 BEGIN BOND
M  V30 1 1 1 2
M  V30 2 1 2 3
M  V30 3 2 3 4
M  V30 4 1 4 5
M  V30 5 2 5 6
M  V30 6 1 6 7
M  V30 7 2 7 8
M  V30 8 1 8 9
M  V30 9 1 7 10
M  V30 10 1 6 11
M  V30 11 1 2 12
M  V30 12 1 12 13
M  V30 13 1 13 14
M  V30 14 1 8 3
M  V30 15 1 1 15
M  V30 16 1 1 16
M  V30 17 1 1 17
M  V30 18 1 4 18
M  V30 19 1 5 19
M  V30 20 1 10 20
M  V30 21 1 10 21
M  V30 22 1 11 22
M  V30 23 1 11 23
M  V30 24 1 12 24
M  V30 25 1 12 25
M  V30 26 1 13 26
M  V30 27 1 13 27
M  V30 28 1 14 28
M  V30 END BOND
M  V30 END CTAB
M  END
