
     RDKit          3D

  0  0  0  0  0  0  0  0  0  0999 V3000
M  V30 BEGIN CTAB
M  V30 COUNTS 30 30 0 0 0
M  V30 BEGIN ATOM
M  V30 1 C 5.22277 1.00174 -0.519291 0
M  V30 2 C 3.80391 0.696346 -0.970459 0
M  V30 3 O 3.69105 0.534108 -2.17866 0
M  V30 4 N 2.83294 0.637282 -0.00511189 0
M  V30 5 C 1.4372 0.382737 -0.0592297 0
M  V30 6 C 0.753834 0.397808 1.10158 0
M  V30 7 N 1.44132 0.66411 2.32597 0
M  V30 8 C -0.680462 0.155548 1.21019 0
M  V30 9 O -1.20255 0.201052 2.38591 0
M  V30 10 C -1.4461 -0.119153 0.0325924 0
M  V30 11 N -2.81982 -0.363667 0.0307349 0
M  V30 12 C -3.79395 -0.421904 1.008 0
M  V30 13 C -5.23019 -0.725119 0.602041 0
M  V30 14 O -3.67151 -0.256925 2.22504 0
M  V30 15 C -0.789923 -0.139801 -1.13455 0
M  V30 16 N -1.44854 -0.403605 -2.38125 0
M  V30 17 C 0.656335 0.105697 -1.23372 0
M  V30 18 O 1.2067 0.0699272 -2.36949 0
M  V30 19 H 5.2302 1.43061 0.492752 0
M  V30 20 H 5.67098 1.71298 -1.23169 0
M  V30 21 H 5.79147 0.0499543 -0.590824 0
M  V30 22 H 3.23485 0.82789 1.00755 0
M  V30 23 H 1.56279 1.63654 2.67545 0
M  V30 24 H 1.81108 -0.134718 2.84897 0
M  V30 25 H -3.22446 -0.555825 -0.990551 0
M  V30 26 H -5.3442 -0.360246 -0.439387 0
M  V30 27 H -5.94109 -0.167957 1.22898 0
M  V30 28 H -5.38322 -1.81296 0.588326 0
M  V30 29 H -1.60178 -1.38136 -2.65354 0
M  V30 30 H -1.76964 0.360905 -3.00635 0
M  V30 END ATOM
M  V30 BEGIN BOND
M  V30 1 1 1 2
M  V30 2 2 2 3
M  V30 3 1 2 4
M  V30 4 1 4 5
M  V30 5 2 5 6
M  V30 6 1 6 7
M  V30 7 1 6 8
M  V30 8 2 8 9
M  V30 9 1 8 10
M  V30 10 1 10 11
M  V30 11 1 11 12
M  V30 12 1 12 13
M  V30 13 2 12 14
M  V30 14 2 10 15
M  V30 15 1 15 16
M  V30 16 1 15 17
M  V30 17 2 17 18
M  V30 18 1 17 5
M  V30 19 1 1 19
M  V30 20 1 1 20
M  V30 21 1 1 21
M  V30 22 1 4 22
M  V30 23 1 7 23
M  V30 24 1 7 24
M  V30 25 1 11 25
M  V30 26 1 13 26
M  V30 27 1 13 27
M  V30 28 1 13 28
M  V30 29 1 16 29
M  V30 30 1 16 30
M  V30 END BOND
M  V30 END CTAB
M  END
