
     RDKit          3D

  0  0  0  0  0  0  0  0  0  0999 V3000
M  V30 BEGIN CTAB
M  V30 COUNTS 46 48 0 0 0
M  V30 BEGIN ATOM
M  V30 1 C -7.95963 -2.04299 0.730887 0
M  V30 2 O -7.29682 -0.839461 0.984248 0
M  V30 3 C -6.0413 -0.492742 0.495244 0
M  V30 4 C -5.55586 0.752596 0.863536 0
M  V30 5 C -4.31566 1.16686 0.416595 0
M  V30 6 C -3.53509 0.371199 -0.394607 0
M  V30 7 C -4.03813 -0.853757 -0.743381 0
M  V30 8 C -5.28471 -1.29526 -0.306716 0
M  V30 9 C -2.22768 0.775874 -0.877148 0
M  V30 10 C -1.55873 1.97118 -0.615484 0
M  V30 11 C -0.3562 1.9157 -1.27891 0
M  V30 12 C -0.325146 0.695241 -1.92294 0
M  V30 13 O -1.43241 0.0922386 -1.64879 0
M  V30 14 C 0.7541 0.116178 -2.78913 0
M  V30 15 C 1.96624 0.990828 -2.83641 0
M  V30 16 C 2.54545 1.10058 -1.48365 0
M  V30 17 O 3.4613 1.90901 -1.22578 0
M  V30 18 O 2.06819 0.29023 -0.476029 0
M  V30 19 C 2.51804 0.285256 0.840888 0
M  V30 20 C 3.94712 -0.0394772 1.01241 0
M  V30 21 N 4.8932 0.883028 1.23318 0
M  V30 22 C 6.19359 0.556861 1.38957 0
M  V30 23 N 7.22535 1.49498 1.62977 0
M  V30 24 N 6.52356 -0.746328 1.31622 0
M  V30 25 C 5.59792 -1.6907 1.09587 0
M  V30 26 N 4.32516 -1.32607 0.947468 0
M  V30 27 N 5.93566 -3.05211 1.01694 0
M  V30 28 H -8.50311 -2.36846 1.64833 0
M  V30 29 H -7.31157 -2.87746 0.414015 0
M  V30 30 H -8.69035 -1.88512 -0.0966343 0
M  V30 31 H -6.16595 1.39873 1.50904 0
M  V30 32 H -3.94912 2.1297 0.705623 0
M  V30 33 H -3.44051 -1.49515 -1.38011 0
M  V30 34 H -5.65339 -2.26056 -0.597585 0
M  V30 35 H -1.95451 2.75819 -0.00158647 0
M  V30 36 H 0.416196 2.67307 -1.29935 0
M  V30 37 H 0.293045 0.0538965 -3.82174 0
M  V30 38 H 0.962178 -0.915323 -2.4995 0
M  V30 39 H 1.72159 2.00878 -3.24396 0
M  V30 40 H 2.70289 0.54375 -3.54359 0
M  V30 41 H 1.89074 -0.47274 1.39743 0
M  V30 42 H 2.27859 1.25026 1.34358 0
M  V30 43 H 7.82253 1.36989 2.47011 0
M  V30 44 H 7.41101 2.30092 1.00446 0
M  V30 45 H 6.6303 -3.42256 0.310504 0
M  V30 46 H 5.51193 -3.77876 1.66036 0
M  V30 END ATOM
M  V30 BEGIN BOND
M  V30 1 1 1 2
M  V30 2 1 2 3
M  V30 3 2 3 4
M  V30 4 1 4 5
M  V30 5 2 5 6
M  V30 6 1 6 7
M  V30 7 2 7 8
M  V30 8 1 6 9
M  V30 9 2 9 10
M  V30 10 1 10 11
M  V30 11 2 11 12
M  V30 12 1 12 13
M  V30 13 1 12 14
M  V30 14 1 14 15
M  V30 15 1 15 16
M  V30 16 2 16 17
M  V30 17 1 16 18
M  V30 18 1 18 19
M  V30 19 1 19 20
M  V30 20 2 20 21
M  V30 21 1 21 22
M  V30 22 1 22 23
M  V30 23 2 22 24
M  V30 24 1 24 25
M  V30 25 2 25 26
M  V30 26 1 25 27
M  V30 27 1 8 3
M  V30 28 1 13 9
M  V30 29 1 26 20
M  V30 30 1 1 28
M  V30 31 1 1 29
M  V30 32 1 1 30
M  V30 33 1 4 31
M  V30 34 1 5 32
M  V30 35 1 7 33
M  V30 36 1 8 34
M  V30 37 1 10 35
M  V30 38 1 11 36
M  V30 39 1 14 37
M  V30 40 1 14 38
M  V30 41 1 15 39
M  V30 42 1 15 40
M  V30 43 1 19 41
M  V30 44 1 19 42
M  V30 45 1 23 43
M  V30 46 1 23 44
M  V30 47 1 27 45
M  V30 48 1 27 46
M  V30 END BOND
M  V30 END CTAB
M  END
