
     RDKit          3D

  0  0  0  0  0  0  0  0  0  0999 V3000
M  V30 BEGIN CTAB
M  V30 COUNTS 45 46 0 0 0
M  V30 BEGIN ATOM
M  V30 1 O -1.80869 -0.447151 -1.7565 0
M  V30 2 C -1.31282 0.118584 -0.727507 0
M  V30 3 C -2.23588 0.857075 0.152068 0
M  V30 4 C -2.21376 0.224887 1.52982 0
M  V30 5 C -2.87881 -1.1357 1.49339 0
M  V30 6 C -4.30529 -0.940636 1.06009 0
M  V30 7 C -4.38828 -0.332344 -0.321948 0
M  V30 8 C -3.60958 0.958553 -0.413555 0
M  V30 9 C -4.33585 2.09356 0.287501 0
M  V30 10 N -3.51463 1.33094 -1.80941 0
M  V30 11 N 0.0760228 0.0410358 -0.437808 0
M  V30 12 C 0.921675 -0.692296 -1.33155 0
M  V30 13 C 2.33655 -0.700115 -0.925528 0
M  V30 14 C 3.19296 0.285832 -1.36823 0
M  V30 15 C 4.52694 0.362026 -1.0435 0
M  V30 16 C 5.06169 -0.602608 -0.221736 0
M  V30 17 C 4.24768 -1.6024 0.242598 0
M  V30 18 C 2.89566 -1.66477 -0.0968528 0
M  V30 19 S 6.75687 -0.493014 0.182059 0
M  V30 20 O 7.48639 0.174423 -0.94989 0
M  V30 21 O 7.35658 -1.85518 0.395468 0
M  V30 22 N 7.02662 0.427973 1.59831 0
M  V30 23 H -1.85616 1.91122 0.290267 0
M  V30 24 H -1.1483 0.059491 1.79241 0
M  V30 25 H -2.71548 0.817319 2.29352 0
M  V30 26 H -2.32913 -1.84192 0.844291 0
M  V30 27 H -2.86357 -1.55418 2.50904 0
M  V30 28 H -4.77667 -1.94006 1.00114 0
M  V30 29 H -4.80848 -0.311324 1.80042 0
M  V30 30 H -4.10026 -1.05641 -1.08973 0
M  V30 31 H -5.46279 -0.0739768 -0.491048 0
M  V30 32 H -4.79328 1.7386 1.23755 0
M  V30 33 H -5.07297 2.55843 -0.382748 0
M  V30 34 H -3.57281 2.84886 0.565658 0
M  V30 35 H -3.55614 2.35094 -1.94629 0
M  V30 36 H -4.2866 0.909563 -2.38146 0
M  V30 37 H 0.42975 0.511365 0.400374 0
M  V30 38 H 0.523719 -1.717 -1.47743 0
M  V30 39 H 0.863254 -0.195033 -2.33612 0
M  V30 40 H 2.76192 1.04812 -2.02002 0
M  V30 41 H 5.16567 1.17611 -1.42837 0
M  V30 42 H 4.68126 -2.35473 0.888176 0
M  V30 43 H 2.26985 -2.44537 0.268428 0
M  V30 44 H 6.90301 -0.131593 2.45264 0
M  V30 45 H 6.46214 1.2829 1.67201 0
M  V30 END ATOM
M  V30 BEGIN BOND
M  V30 1 2 1 2
M  V30 2 1 2 3
M  V30 3 1 3 4
M  V30 4 1 4 5
M  V30 5 1 5 6
M  V30 6 1 6 7
M  V30 7 1 7 8
M  V30 8 1 8 9
M  V30 9 1 8 10
M  V30 10 1 2 11
M  V30 11 1 11 12
M  V30 12 1 12 13
M  V30 13 2 13 14
M  V30 14 1 14 15
M  V30 15 2 15 16
M  V30 16 1 16 17
M  V30 17 2 17 18
M  V30 18 1 16 19
M  V30 19 2 19 20
M  V30 20 2 19 21
M  V30 21 1 19 22
M  V30 22 1 8 3
M  V30 23 1 18 13
M  V30 24 1 3 23
M  V30 25 1 4 24
M  V30 26 1 4 25
M  V30 27 1 5 26
M  V30 28 1 5 27
M  V30 29 1 6 28
M  V30 30 1 6 29
M  V30 31 1 7 30
M  V30 32 1 7 31
M  V30 33 1 9 32
M  V30 34 1 9 33
M  V30 35 1 9 34
M  V30 36 1 10 35
M  V30 37 1 10 36
M  V30 38 1 11 37
M  V30 39 1 12 38
M  V30 40 1 12 39
M  V30 41 1 14 40
M  V30 42 1 15 41
M  V30 43 1 17 42
M  V30 44 1 18 43
M  V30 45 1 22 44
M  V30 46 1 22 45
M  V30 END BOND
M  V30 END CTAB
M  END
