
     RDKit          3D

  0  0  0  0  0  0  0  0  0  0999 V3000
M  V30 BEGIN CTAB
M  V30 COUNTS 18 19 0 0 0
M  V30 BEGIN ATOM
M  V30 1 N 4.1409 -0.00273873 0.250223 0
M  V30 2 C 2.71342 -0.2356 0.241083 0
M  V30 3 N 1.73179 0.641661 0.23725 0
M  V30 4 C 0.487987 0.2383 0.228814 0
M  V30 5 C 0.267188 -1.11378 0.224291 0
M  V30 6 S 1.86162 -1.72568 0.232438 0
M  V30 7 C -1.02827 -1.65052 0.21522 0
M  V30 8 C -2.15581 -0.837064 0.210349 0
M  V30 9 C -1.89023 0.517005 0.215149 0
M  V30 10 N -3.05475 1.3693 0.210148 0
M  V30 11 C -0.642495 1.07958 0.223993 0
M  V30 12 H 4.55419 0.164507 1.19201 0
M  V30 13 H 4.72898 0.00358566 -0.58909 0
M  V30 14 H -1.10946 -2.71224 0.212227 0
M  V30 15 H -3.13809 -1.2412 0.20348 0
M  V30 16 H -3.05232 2.16223 0.879893 0
M  V30 17 H -3.84947 1.18835 -0.43594 0
M  V30 18 H -0.565192 2.1543 0.227012 0
M  V30 END ATOM
M  V30 BEGIN BOND
M  V30 1 1 1 2
M  V30 2 2 2 3
M  V30 3 1 3 4
M  V30 4 2 4 5
M  V30 5 1 5 6
M  V30 6 1 5 7
M  V30 7 2 7 8
M  V30 8 1 8 9
M  V30 9 1 9 10
M  V30 10 2 9 11
M  V30 11 1 6 2
M  V30 12 1 11 4
M  V30 13 1 1 12
M  V30 14 1 1 13
M  V30 15 1 7 14
M  V30 16 1 8 15
M  V30 17 1 10 16
M  V30 18 1 10 17
M  V30 19 1 11 18
M  V30 END BOND
M  V30 END CTAB
M  END
