
     RDKit          3D

  0  0  0  0  0  0  0  0  0  0999 V3000
M  V30 BEGIN CTAB
M  V30 COUNTS 20 21 0 0 0
M  V30 BEGIN ATOM
M  V30 1 N -2.77409 2.16642 -0.142818 0
M  V30 2 C -1.9914 0.979584 -0.0459926 0
M  V30 3 N -2.60235 -0.219873 -0.0493302 0
M  V30 4 C -1.90531 -1.37574 0.0402422 0
M  V30 5 N -2.57071 -2.63696 0.0350907 0
M  V30 6 N -0.567596 -1.25976 0.132837 0
M  V30 7 C 0.0477411 -0.0637541 0.136608 0
M  V30 8 N -0.654517 1.07384 0.0472815 0
M  V30 9 C 1.51773 -0.0070092 0.240759 0
M  V30 10 C 2.28084 1.14156 0.25682 0
M  V30 11 C 3.61464 0.769298 0.365715 0
M  V30 12 C 3.58775 -0.611011 0.410648 0
M  V30 13 O 2.33881 -1.01195 0.334142 0
M  V30 14 Cl 5.04815 -1.57532 0.548779 0
M  V30 15 H -3.78616 2.16957 0.0111828 0
M  V30 16 H -2.32489 3.08709 -0.379263 0
M  V30 17 H -2.51596 -3.30025 -0.769052 0
M  V30 18 H -3.13823 -2.91794 0.864219 0
M  V30 19 H 1.92496 2.16319 0.196438 0
M  V30 20 H 4.47058 1.429 0.405071 0
M  V30 END ATOM
M  V30 BEGIN BOND
M  V30 1 1 1 2
M  V30 2 2 2 3
M  V30 3 1 3 4
M  V30 4 1 4 5
M  V30 5 2 4 6
M  V30 6 1 6 7
M  V30 7 2 7 8
M  V30 8 1 7 9
M  V30 9 2 9 10
M  V30 10 1 10 11
M  V30 11 2 11 12
M  V30 12 1 12 13
M  V30 13 1 12 14
M  V30 14 1 8 2
M  V30 15 1 13 9
M  V30 16 1 1 15
M  V30 17 1 1 16
M  V30 18 1 5 17
M  V30 19 1 5 18
M  V30 20 1 10 19
M  V30 21 1 11 20
M  V30 END BOND
M  V30 END CTAB
M  END
