
     RDKit          3D

  0  0  0  0  0  0  0  0  0  0999 V3000
M  V30 BEGIN CTAB
M  V30 COUNTS 27 27 0 0 0
M  V30 BEGIN ATOM
M  V30 1 N -4.21634 0.650741 -0.401855 0
M  V30 2 C -2.80576 0.399847 -0.332708 0
M  V30 3 C -2.3557 -0.906124 -0.330157 0
M  V30 4 C -1.00575 -1.1363 -0.263913 0
M  V30 5 C -0.053006 -0.124038 -0.198494 0
M  V30 6 C -0.526498 1.16231 -0.202341 0
M  V30 7 C -1.89896 1.43294 -0.269223 0
M  V30 8 C 1.37962 -0.437876 -0.119718 0
M  V30 9 C 2.25584 0.315174 -1.02786 0
M  V30 10 S 3.04376 -0.485972 -2.20882 0
M  V30 11 N 2.45758 1.70603 -0.937538 0
M  V30 12 C 1.52832 -1.94903 -0.375466 0
M  V30 13 C 1.82935 -0.165713 1.32789 0
M  V30 14 H -4.69095 0.421386 -1.29714 0
M  V30 15 H -4.7106 1.04346 0.420946 0
M  V30 16 H -3.09394 -1.7057 -0.381084 0
M  V30 17 H -0.703216 -2.19473 -0.265079 0
M  V30 18 H 0.0901586 2.04085 -0.150962 0
M  V30 19 H -2.27055 2.46075 -0.272138 0
M  V30 20 H 1.97795 2.39338 -1.59121 0
M  V30 21 H 3.08659 2.16805 -0.230092 0
M  V30 22 H 2.62115 -2.17455 -0.524455 0
M  V30 23 H 1.16827 -2.50625 0.489969 0
M  V30 24 H 1.04197 -2.18651 -1.3281 0
M  V30 25 H 2.65621 0.585274 1.32985 0
M  V30 26 H 1.01088 0.292614 1.91857 0
M  V30 27 H 2.18361 -1.10002 1.79383 0
M  V30 END ATOM
M  V30 BEGIN BOND
M  V30 1 1 1 2
M  V30 2 2 2 3
M  V30 3 1 3 4
M  V30 4 2 4 5
M  V30 5 1 5 6
M  V30 6 2 6 7
M  V30 7 1 5 8
M  V30 8 1 8 9
M  V30 9 2 9 10
M  V30 10 1 9 11
M  V30 11 1 8 12
M  V30 12 1 8 13
M  V30 13 1 7 2
M  V30 14 1 1 14
M  V30 15 1 1 15
M  V30 16 1 3 16
M  V30 17 1 4 17
M  V30 18 1 6 18
M  V30 19 1 7 19
M  V30 20 1 11 20
M  V30 21 1 11 21
M  V30 22 1 12 22
M  V30 23 1 12 23
M  V30 24 1 12 24
M  V30 25 1 13 25
M  V30 26 1 13 26
M  V30 27 1 13 27
M  V30 END BOND
M  V30 END CTAB
M  END
