
     RDKit          3D

  0  0  0  0  0  0  0  0  0  0999 V3000
M  V30 BEGIN CTAB
M  V30 COUNTS 22 23 0 0 0
M  V30 BEGIN ATOM
M  V30 1 N -3.08865 -1.91824 0.116127 0
M  V30 2 C -2.20996 -0.795894 0.0575199 0
M  V30 3 N -2.6766 0.469653 0.0127446 0
M  V30 4 C -1.83206 1.5083 -0.0419418 0
M  V30 5 N -2.38175 2.8185 -0.0873337 0
M  V30 6 N -0.490203 1.37619 -0.0561665 0
M  V30 7 C 0.023773 0.135447 -0.0130992 0
M  V30 8 C -0.83082 -0.945041 0.0434414 0
M  V30 9 C 1.48077 -0.0788786 -0.0256834 0
M  V30 10 N 2.42524 0.869029 -0.0781434 0
M  V30 11 C 3.65453 0.304586 -0.0731204 0
M  V30 12 C 3.50696 -1.05408 -0.0155736 0
M  V30 13 C 2.14328 -1.28275 0.0137024 0
M  V30 14 H -3.52601 -2.36846 -0.69174 0
M  V30 15 H -3.29431 -2.302 1.06465 0
M  V30 16 H -2.83507 3.16866 0.783474 0
M  V30 17 H -2.35443 3.43199 -0.928954 0
M  V30 18 H -0.459747 -1.95333 0.0791315 0
M  V30 19 H 2.24554 1.89841 -0.117488 0
M  V30 20 H 4.62463 0.801015 -0.107562 0
M  V30 21 H 4.25613 -1.84138 0.00555575 0
M  V30 22 H 1.61876 -2.24173 0.0604605 0
M  V30 END ATOM
M  V30 BEGIN BOND
M  V30 1 1 1 2
M  V30 2 2 2 3
M  V30 3 1 3 4
M  V30 4 1 4 5
M  V30 5 2 4 6
M  V30 6 1 6 7
M  V30 7 2 7 8
M  V30 8 1 7 9
M  V30 9 1 9 10
M  V30 10 1 10 11
M  V30 11 2 11 12
M  V30 12 1 12 13
M  V30 13 1 8 2
M  V30 14 2 13 9
M  V30 15 1 1 14
M  V30 16 1 1 15
M  V30 17 1 5 16
M  V30 18 1 5 17
M  V30 19 1 8 18
M  V30 20 1 10 19
M  V30 21 1 11 20
M  V30 22 1 12 21
M  V30 23 1 13 22
M  V30 END BOND
M  V30 END CTAB
M  END
