
     RDKit          3D

  0  0  0  0  0  0  0  0  0  0999 V3000
M  V30 BEGIN CTAB
M  V30 COUNTS 25 26 0 0 0
M  V30 BEGIN ATOM
M  V30 1 N -4.37483 -0.563958 0.528715 0
M  V30 2 C -3.30923 0.285826 0.953325 0
M  V30 3 N -3.46741 1.33856 1.78007 0
M  V30 4 C -2.27834 1.92929 1.99272 0
M  V30 5 C -1.37054 1.16999 1.24105 0
M  V30 6 N -2.01393 0.168389 0.609587 0
M  V30 7 C -1.45826 -0.840486 -0.254991 0
M  V30 8 O -2.21224 -1.68888 -0.764167 0
M  V30 9 C -0.0129892 -0.868656 -0.530709 0
M  V30 10 C 0.512228 -1.4573 -1.65906 0
M  V30 11 C 1.8872 -1.29322 -1.57975 0
M  V30 12 C 2.13835 -0.613902 -0.407598 0
M  V30 13 O 0.983254 -0.382502 0.180077 0
M  V30 14 S 3.71411 -0.135728 0.20412 0
M  V30 15 O 4.76876 -0.578993 -0.770128 0
M  V30 16 O 3.95385 -0.786233 1.53822 0
M  V30 17 N 3.82813 1.56715 0.394838 0
M  V30 18 H -4.48438 -0.879178 -0.46118 0
M  V30 19 H -5.10137 -0.911023 1.1914 0
M  V30 20 H -2.03781 2.79305 2.59305 0
M  V30 21 H -0.314299 1.39716 1.20304 0
M  V30 22 H -0.0130434 -1.95531 -2.46258 0
M  V30 23 H 2.59037 -1.64808 -2.3217 0
M  V30 24 H 3.25105 2.08321 -0.323785 0
M  V30 25 H 4.82138 1.87083 0.391734 0
M  V30 END ATOM
M  V30 BEGIN BOND
M  V30 1 1 1 2
M  V30 2 2 2 3
M  V30 3 1 3 4
M  V30 4 2 4 5
M  V30 5 1 5 6
M  V30 6 1 6 7
M  V30 7 2 7 8
M  V30 8 1 7 9
M  V30 9 2 9 10
M  V30 10 1 10 11
M  V30 11 2 11 12
M  V30 12 1 12 13
M  V30 13 1 12 14
M  V30 14 2 14 15
M  V30 15 2 14 16
M  V30 16 1 14 17
M  V30 17 1 6 2
M  V30 18 1 13 9
M  V30 19 1 1 18
M  V30 20 1 1 19
M  V30 21 1 4 20
M  V30 22 1 5 21
M  V30 23 1 10 22
M  V30 24 1 11 23
M  V30 25 1 17 24
M  V30 26 1 17 25
M  V30 END BOND
M  V30 END CTAB
M  END
