
     RDKit          3D

  0  0  0  0  0  0  0  0  0  0999 V3000
M  V30 BEGIN CTAB
M  V30 COUNTS 39 41 0 0 0
M  V30 BEGIN ATOM
M  V30 1 N 4.82812 -2.41011 -0.872916 0
M  V30 2 C 3.63792 -1.74101 -0.487781 0
M  V30 3 C 3.58464 -0.967692 0.673271 0
M  V30 4 C 2.41072 -0.330905 1.01748 0
M  V30 5 C 1.25711 -0.410823 0.269883 0
M  V30 6 C 1.30565 -1.17218 -0.875348 0
M  V30 7 C 2.47415 -1.81078 -1.22527 0
M  V30 8 C 0.060632 0.309885 0.73054 0
M  V30 9 C 0.0377939 1.70562 0.262074 0
M  V30 10 C -0.206874 2.78721 1.11469 0
M  V30 11 C -0.206517 4.09595 0.687176 0
M  V30 12 C 0.0444679 4.3734 -0.638634 0
M  V30 13 C 0.28998 3.35403 -1.51498 0
M  V30 14 C 0.281539 2.0388 -1.04491 0
M  V30 15 C -1.21817 -0.367194 0.540371 0
M  V30 16 C -1.7721 -1.15211 1.56683 0
M  V30 17 C -2.97153 -1.80933 1.43177 0
M  V30 18 C -3.70549 -1.73289 0.266606 0
M  V30 19 N -4.95247 -2.40944 0.111157 0
M  V30 20 C -3.18307 -0.969982 -0.752828 0
M  V30 21 C -1.95881 -0.301278 -0.610301 0
M  V30 22 H 5.76148 -2.07663 -0.566223 0
M  V30 23 H 4.77858 -3.25164 -1.47353 0
M  V30 24 H 4.46893 -0.883795 1.28117 0
M  V30 25 H 2.42302 0.26409 1.93966 0
M  V30 26 H 0.39847 -1.2347 -1.46287 0
M  V30 27 H 2.51075 -2.4171 -2.1384 0
M  V30 28 H 0.199759 0.410503 1.86943 0
M  V30 29 H -0.401563 2.53015 2.15673 0
M  V30 30 H -0.405045 4.86512 1.41426 0
M  V30 31 H 0.036723 5.41838 -0.940984 0
M  V30 32 H 0.484446 3.59595 -2.55097 0
M  V30 33 H 0.492368 1.29645 -1.8093 0
M  V30 34 H -1.20433 -1.21664 2.48035 0
M  V30 35 H -3.37551 -2.40914 2.2423 0
M  V30 36 H -5.61624 -2.62926 0.879657 0
M  V30 37 H -5.21649 -2.70567 -0.849922 0
M  V30 38 H -3.76001 -0.910532 -1.66728 0
M  V30 39 H -1.61304 0.275315 -1.45297 0
M  V30 END ATOM
M  V30 BEGIN BOND
M  V30 1 1 1 2
M  V30 2 2 2 3
M  V30 3 1 3 4
M  V30 4 2 4 5
M  V30 5 1 5 6
M  V30 6 2 6 7
M  V30 7 1 5 8
M  V30 8 1 8 9
M  V30 9 2 9 10
M  V30 10 1 10 11
M  V30 11 2 11 12
M  V30 12 1 12 13
M  V30 13 2 13 14
M  V30 14 1 8 15
M  V30 15 2 15 16
M  V30 16 1 16 17
M  V30 17 2 17 18
M  V30 18 1 18 19
M  V30 19 1 18 20
M  V30 20 2 20 21
M  V30 21 1 7 2
M  V30 22 1 14 9
M  V30 23 1 21 15
M  V30 24 1 1 22
M  V30 25 1 1 23
M  V30 26 1 3 24
M  V30 27 1 4 25
M  V30 28 1 6 26
M  V30 29 1 7 27
M  V30 30 1 8 28
M  V30 31 1 10 29
M  V30 32 1 11 30
M  V30 33 1 12 31
M  V30 34 1 13 32
M  V30 35 1 14 33
M  V30 36 1 16 34
M  V30 37 1 17 35
M  V30 38 1 19 36
M  V30 39 1 19 37
M  V30 40 1 20 38
M  V30 41 1 21 39
M  V30 END BOND
M  V30 END CTAB
M  END
