
     RDKit          3D

  0  0  0  0  0  0  0  0  0  0999 V3000
M  V30 BEGIN CTAB
M  V30 COUNTS 47 48 0 0 0
M  V30 BEGIN ATOM
M  V30 1 C -2.49817 2.58268 -2.01142 0
M  V30 2 C -2.4307 2.64901 -0.495213 0
M  V30 3 C -1.68738 1.50223 0.0721929 0
M  V30 4 C -0.413034 1.63286 0.556339 0
M  V30 5 C 0.316073 0.577687 1.10447 0
M  V30 6 C 1.67882 0.697028 1.63217 0
M  V30 7 C 2.77165 0.0375335 0.939996 0
M  V30 8 C 3.37749 0.488103 -0.207694 0
M  V30 9 S 2.85649 1.93779 -1.10388 0
M  V30 10 C 1.76135 1.49824 -2.4545 0
M  V30 11 N 4.43308 -0.169553 -0.775175 0
M  V30 12 C 4.89597 -1.28588 -0.20399 0
M  V30 13 N 6.00132 -1.99665 -0.782698 0
M  V30 14 N 4.30969 -1.71754 0.902392 0
M  V30 15 C 3.28372 -1.13783 1.51488 0
M  V30 16 N 2.79437 -1.7217 2.70472 0
M  V30 17 C -0.361744 -0.634315 1.12067 0
M  V30 18 C -1.6501 -0.790497 0.636504 0
M  V30 19 C -2.28391 -2.12613 0.690524 0
M  V30 20 C -2.28739 -2.82936 -0.642189 0
M  V30 21 C -2.31981 0.280203 0.108845 0
M  V30 22 O -3.6121 0.0986238 -0.371592 0
M  V30 23 C -4.75646 0.253434 0.426037 0
M  V30 24 H -3.05447 1.685 -2.36799 0
M  V30 25 H -3.03122 3.52246 -2.33145 0
M  V30 26 H -1.49459 2.63378 -2.42726 0
M  V30 27 H -1.98469 3.62583 -0.238404 0
M  V30 28 H -3.50782 2.64941 -0.161401 0
M  V30 29 H 0.0662572 2.59549 0.518993 0
M  V30 30 H 1.92783 1.81669 1.66732 0
M  V30 31 H 1.69694 0.445762 2.73996 0
M  V30 32 H 0.827485 2.07256 -2.36837 0
M  V30 33 H 1.47455 0.425991 -2.46679 0
M  V30 34 H 2.23419 1.79311 -3.41793 0
M  V30 35 H 6.61636 -1.54309 -1.45424 0
M  V30 36 H 6.15606 -2.97818 -0.501836 0
M  V30 37 H 3.05091 -1.32971 3.64434 0
M  V30 38 H 2.1661 -2.55532 2.7072 0
M  V30 39 H 0.094949 -1.50768 1.51461 0
M  V30 40 H -3.32415 -2.0587 1.06755 0
M  V30 41 H -1.74978 -2.8027 1.40693 0
M  V30 42 H -1.27668 -3.10589 -0.97115 0
M  V30 43 H -2.83195 -3.79525 -0.492092 0
M  V30 44 H -2.85298 -2.23793 -1.35897 0
M  V30 45 H -4.56836 0.477286 1.47631 0
M  V30 46 H -5.45674 1.04255 0.0415055 0
M  V30 47 H -5.35742 -0.697463 0.411788 0
M  V30 END ATOM
M  V30 BEGIN BOND
M  V30 1 1 1 2
M  V30 2 1 2 3
M  V30 3 2 3 4
M  V30 4 1 4 5
M  V30 5 1 5 6
M  V30 6 1 6 7
M  V30 7 2 7 8
M  V30 8 1 8 9
M  V30 9 1 9 10
M  V30 10 1 8 11
M  V30 11 2 11 12
M  V30 12 1 12 13
M  V30 13 1 12 14
M  V30 14 2 14 15
M  V30 15 1 15 16
M  V30 16 2 5 17
M  V30 17 1 17 18
M  V30 18 1 18 19
M  V30 19 1 19 20
M  V30 20 2 18 21
M  V30 21 1 21 22
M  V30 22 1 22 23
M  V30 23 1 21 3
M  V30 24 1 15 7
M  V30 25 1 1 24
M  V30 26 1 1 25
M  V30 27 1 1 26
M  V30 28 1 2 27
M  V30 29 1 2 28
M  V30 30 1 4 29
M  V30 31 1 6 30
M  V30 32 1 6 31
M  V30 33 1 10 32
M  V30 34 1 10 33
M  V30 35 1 10 34
M  V30 36 1 13 35
M  V30 37 1 13 36
M  V30 38 1 16 37
M  V30 39 1 16 38
M  V30 40 1 17 39
M  V30 41 1 19 40
M  V30 42 1 19 41
M  V30 43 1 20 42
M  V30 44 1 20 43
M  V30 45 1 20 44
M  V30 46 1 23 45
M  V30 47 1 23 46
M  V30 48 1 23 47
M  V30 END BOND
M  V30 END CTAB
M  END
