
     RDKit          3D

  0  0  0  0  0  0  0  0  0  0999 V3000
M  V30 BEGIN CTAB
M  V30 COUNTS 45 48 0 0 0
M  V30 BEGIN ATOM
M  V30 1 N 7.07784 -1.74886 1.75635 0
M  V30 2 N 5.78296 -1.26988 1.79094 0
M  V30 3 C 4.98738 -1.42955 0.635429 0
M  V30 4 O 5.43887 -1.98578 -0.385063 0
M  V30 5 C 3.58817 -0.929159 0.627035 0
M  V30 6 S 2.75141 -0.141898 1.88774 0
M  V30 7 C 1.25506 0.0953224 1.10664 0
M  V30 8 C 1.44748 -0.453127 -0.13487 0
M  V30 9 C 2.6624 -0.984054 -0.379176 0
M  V30 10 N 3.09806 -1.61035 -1.62783 0
M  V30 11 C 0.322076 -0.366774 -0.977726 0
M  V30 12 C 0.241175 -0.891812 -2.35284 0
M  V30 13 C -0.996845 -1.83305 -2.34042 0
M  V30 14 C -2.23446 -1.08223 -1.98038 0
M  V30 15 C -1.94966 0.315992 -1.51093 0
M  V30 16 C -0.842191 0.241217 -0.508348 0
M  V30 17 C -0.971448 0.769546 0.744685 0
M  V30 18 N 0.113406 0.680899 1.54489 0
M  V30 19 N -2.18523 1.35342 1.18714 0
M  V30 20 C -3.37509 0.580544 1.44394 0
M  V30 21 C -4.54288 1.50831 1.36125 0
M  V30 22 O -4.47985 2.56371 2.24104 0
M  V30 23 C -3.34537 3.32385 2.1568 0
M  V30 24 C -2.22258 2.76922 1.38254 0
M  V30 25 H 7.41955 -2.03692 2.70179 0
M  V30 26 H 7.12775 -2.5691 1.11373 0
M  V30 27 H 5.36351 -0.792259 2.63876 0
M  V30 28 H 3.03378 -2.64694 -1.72764 0
M  V30 29 H 3.46576 -1.06373 -2.41141 0
M  V30 30 H 1.02961 -1.5725 -2.67979 0
M  V30 31 H 0.0541706 -0.0785399 -3.09147 0
M  V30 32 H -0.773628 -2.56659 -1.53985 0
M  V30 33 H -1.13728 -2.29425 -3.32939 0
M  V30 34 H -2.74029 -1.60953 -1.14611 0
M  V30 35 H -2.99055 -1.07403 -2.80721 0
M  V30 36 H -2.79516 0.883722 -1.15507 0
M  V30 37 H -1.58074 0.880522 -2.42095 0
M  V30 38 H -3.31035 0.24688 2.51042 0
M  V30 39 H -3.53944 -0.263815 0.760589 0
M  V30 40 H -5.46645 0.925625 1.54918 0
M  V30 41 H -4.66832 1.94055 0.331565 0
M  V30 42 H -3.05106 3.62342 3.18411 0
M  V30 43 H -3.65178 4.29604 1.66296 0
M  V30 44 H -2.14795 3.23209 0.354096 0
M  V30 45 H -1.26179 3.06383 1.87814 0
M  V30 END ATOM
M  V30 BEGIN BOND
M  V30 1 1 1 2
M  V30 2 1 2 3
M  V30 3 2 3 4
M  V30 4 1 3 5
M  V30 5 1 5 6
M  V30 6 1 6 7
M  V30 7 2 7 8
M  V30 8 1 8 9
M  V30 9 1 9 10
M  V30 10 1 8 11
M  V30 11 1 11 12
M  V30 12 1 12 13
M  V30 13 1 13 14
M  V30 14 1 14 15
M  V30 15 1 15 16
M  V30 16 1 16 17
M  V30 17 2 17 18
M  V30 18 1 17 19
M  V30 19 1 19 20
M  V30 20 1 20 21
M  V30 21 1 21 22
M  V30 22 1 22 23
M  V30 23 1 23 24
M  V30 24 2 9 5
M  V30 25 2 16 11
M  V30 26 1 24 19
M  V30 27 1 18 7
M  V30 28 1 1 25
M  V30 29 1 1 26
M  V30 30 1 2 27
M  V30 31 1 10 28
M  V30 32 1 10 29
M  V30 33 1 12 30
M  V30 34 1 12 31
M  V30 35 1 13 32
M  V30 36 1 13 33
M  V30 37 1 14 34
M  V30 38 1 14 35
M  V30 39 1 15 36
M  V30 40 1 15 37
M  V30 41 1 20 38
M  V30 42 1 20 39
M  V30 43 1 21 40
M  V30 44 1 21 41
M  V30 45 1 23 42
M  V30 46 1 23 43
M  V30 47 1 24 44
M  V30 48 1 24 45
M  V30 END BOND
M  V30 END CTAB
M  END
