
     RDKit          3D

  0  0  0  0  0  0  0  0  0  0999 V3000
M  V30 BEGIN CTAB
M  V30 COUNTS 55 57 0 0 0
M  V30 BEGIN ATOM
M  V30 1 C 7.07216 -2.68819 0.579966 0
M  V30 2 C 6.06881 -1.61424 0.936842 0
M  V30 3 N 5.99229 -0.685255 -0.168811 0
M  V30 4 C 7.28161 0.00737979 -0.209271 0
M  V30 5 C 7.2717 1.00296 -1.35046 0
M  V30 6 C 4.98979 0.317558 0.00443778 0
M  V30 7 C 3.56969 -0.21646 -0.0435597 0
M  V30 8 C 2.66828 0.981938 0.156386 0
M  V30 9 N 1.27732 0.685579 0.142528 0
M  V30 10 C 0.328284 1.71661 0.318923 0
M  V30 11 O 0.730405 2.8908 0.487161 0
M  V30 12 C -1.11996 1.46528 0.312923 0
M  V30 13 N -1.60889 0.227078 0.134572 0
M  V30 14 C -2.93567 0.041653 0.133126 0
M  V30 15 C -3.80657 1.09256 0.310286 0
M  V30 16 N -3.30328 2.33162 0.488888 0
M  V30 17 C -1.97459 2.54317 0.494297 0
M  V30 18 N -1.42977 3.85848 0.68415 0
M  V30 19 N -5.13358 0.858723 0.302887 0
M  V30 20 C -5.6816 -0.35467 0.130929 0
M  V30 21 N -4.82675 -1.37218 -0.0410579 0
M  V30 22 C -3.4933 -1.22308 -0.0465594 0
M  V30 23 N -2.5986 -2.31215 -0.231015 0
M  V30 24 C -7.12992 -0.535072 0.130582 0
M  V30 25 C -7.95679 0.552497 0.297688 0
M  V30 26 C -9.33408 0.403554 0.301304 0
M  V30 27 C -9.93985 -0.825017 0.139812 0
M  V30 28 Cl -11.6801 -1.01283 0.143319 0
M  V30 29 C -9.10914 -1.91566 -0.0279882 0
M  V30 30 C -7.72172 -1.76648 -0.0318201 0
M  V30 31 H 8.03565 -2.5515 1.1276 0
M  V30 32 H 6.69217 -3.70276 0.813196 0
M  V30 33 H 7.32026 -2.63474 -0.500372 0
M  V30 34 H 5.08637 -2.07338 1.18892 0
M  V30 35 H 6.48801 -1.05922 1.80702 0
M  V30 36 H 7.45826 0.548006 0.762739 0
M  V30 37 H 8.12587 -0.690883 -0.307208 0
M  V30 38 H 6.87697 1.98339 -0.986365 0
M  V30 39 H 8.31024 1.18668 -1.72679 0
M  V30 40 H 6.65185 0.691104 -2.19485 0
M  V30 41 H 5.07263 1.04946 -0.827227 0
M  V30 42 H 5.0813 0.855362 0.981507 0
M  V30 43 H 3.36424 -0.927152 0.782175 0
M  V30 44 H 3.32872 -0.648104 -1.04078 0
M  V30 45 H 2.87506 1.7192 -0.673577 0
M  V30 46 H 2.94579 1.5041 1.11689 0
M  V30 47 H 0.94075 -0.280377 0.00411508 0
M  V30 48 H -1.22768 4.46218 -0.139851 0
M  V30 49 H -1.22117 4.24998 1.62417 0
M  V30 50 H -2.78451 -3.23368 0.192934 0
M  V30 51 H -1.73918 -2.18804 -0.801418 0
M  V30 52 H -7.49382 1.52099 0.424543 0
M  V30 53 H -9.98587 1.26908 0.433059 0
M  V30 54 H -9.57521 -2.88616 -0.155631 0
M  V30 55 H -7.09288 -2.61971 -0.162808 0
M  V30 END ATOM
M  V30 BEGIN BOND
M  V30 1 1 1 2
M  V30 2 1 2 3
M  V30 3 1 3 4
M  V30 4 1 4 5
M  V30 5 1 3 6
M  V30 6 1 6 7
M  V30 7 1 7 8
M  V30 8 1 8 9
M  V30 9 1 9 10
M  V30 10 2 10 11
M  V30 11 1 10 12
M  V30 12 2 12 13
M  V30 13 1 13 14
M  V30 14 2 14 15
M  V30 15 1 15 16
M  V30 16 2 16 17
M  V30 17 1 17 18
M  V30 18 1 15 19
M  V30 19 2 19 20
M  V30 20 1 20 21
M  V30 21 2 21 22
M  V30 22 1 22 23
M  V30 23 1 20 24
M  V30 24 2 24 25
M  V30 25 1 25 26
M  V30 26 2 26 27
M  V30 27 1 27 28
M  V30 28 1 27 29
M  V30 29 2 29 30
M  V30 30 1 17 12
M  V30 31 1 30 24
M  V30 32 1 22 14
M  V30 33 1 1 31
M  V30 34 1 1 32
M  V30 35 1 1 33
M  V30 36 1 2 34
M  V30 37 1 2 35
M  V30 38 1 4 36
M  V30 39 1 4 37
M  V30 40 1 5 38
M  V30 41 1 5 39
M  V30 42 1 5 40
M  V30 43 1 6 41
M  V30 44 1 6 42
M  V30 45 1 7 43
M  V30 46 1 7 44
M  V30 47 1 8 45
M  V30 48 1 8 46
M  V30 49 1 9 47
M  V30 50 1 18 48
M  V30 51 1 18 49
M  V30 52 1 23 50
M  V30 53 1 23 51
M  V30 54 1 25 52
M  V30 55 1 26 53
M  V30 56 1 29 54
M  V30 57 1 30 55
M  V30 END BOND
M  V30 END CTAB
M  END
