
     RDKit          3D

  0  0  0  0  0  0  0  0  0  0999 V3000
M  V30 BEGIN CTAB
M  V30 COUNTS 42 44 0 0 0
M  V30 BEGIN ATOM
M  V30 1 C -3.12147 -2.965 1.18409 0
M  V30 2 C -2.36605 -2.10816 0.244187 0
M  V30 3 C -2.66614 -2.21647 -1.10408 0
M  V30 4 N -3.66825 -3.12764 -1.53102 0
M  V30 5 C -1.98437 -1.43308 -2.00922 0
M  V30 6 C -1.0088 -0.53951 -1.63321 0
M  V30 7 C -0.722844 -0.44581 -0.282563 0
M  V30 8 C -1.39239 -1.22126 0.655072 0
M  V30 9 C 0.308085 0.528437 0.11181 0
M  V30 10 C 1.66989 0.028263 0.174223 0
M  V30 11 C 1.95228 -1.10831 0.918299 0
M  V30 12 C 3.20179 -1.66384 0.987104 0
M  V30 13 C 4.21324 -1.04419 0.27257 0
M  V30 14 N 5.52304 -1.5615 0.293684 0
M  V30 15 C 3.94713 0.0836807 -0.468679 0
M  V30 16 C 2.69904 0.626314 -0.528754 0
M  V30 17 C -0.0162114 1.77846 0.312333 0
M  V30 18 C -1.4367 2.17061 0.123021 0
M  V30 19 C -1.88363 3.39094 0.327119 0
M  V30 20 C -0.949106 4.44046 0.765725 0
M  V30 21 N -1.29658 5.65164 0.985303 0
M  V30 22 C 0.45468 4.08792 0.961197 0
M  V30 23 C 0.887041 2.83419 0.746504 0
M  V30 24 H -3.86394 -2.37307 1.78812 0
M  V30 25 H -2.43956 -3.46304 1.91892 0
M  V30 26 H -3.63627 -3.79611 0.657619 0
M  V30 27 H -4.66006 -2.79302 -1.51316 0
M  V30 28 H -3.43985 -4.08201 -1.84915 0
M  V30 29 H -2.22584 -1.5246 -3.07864 0
M  V30 30 H -0.470263 0.0789013 -2.36588 0
M  V30 31 H -1.16722 -1.13673 1.71401 0
M  V30 32 H 1.13548 -1.59095 1.4864 0
M  V30 33 H 3.37784 -2.54971 1.57844 0
M  V30 34 H 5.87175 -2.2849 -0.379321 0
M  V30 35 H 6.17402 -1.19403 1.03006 0
M  V30 36 H 4.74944 0.555913 -1.0203 0
M  V30 37 H 2.50322 1.51277 -1.1208 0
M  V30 38 H -2.1357 1.40568 -0.198705 0
M  V30 39 H -2.9276 3.62857 0.173856 0
M  V30 40 H -2.27459 5.96114 0.861267 0
M  V30 41 H 1.14545 4.85836 1.2843 0
M  V30 42 H 1.94002 2.6007 0.916814 0
M  V30 END ATOM
M  V30 BEGIN BOND
M  V30 1 1 1 2
M  V30 2 2 2 3
M  V30 3 1 3 4
M  V30 4 1 3 5
M  V30 5 2 5 6
M  V30 6 1 6 7
M  V30 7 2 7 8
M  V30 8 1 7 9
M  V30 9 1 9 10
M  V30 10 2 10 11
M  V30 11 1 11 12
M  V30 12 2 12 13
M  V30 13 1 13 14
M  V30 14 1 13 15
M  V30 15 2 15 16
M  V30 16 2 9 17 CFG=2
M  V30 17 1 17 18
M  V30 18 2 18 19
M  V30 19 1 19 20
M  V30 20 2 20 21 CFG=2
M  V30 21 1 20 22
M  V30 22 2 22 23
M  V30 23 1 8 2
M  V30 24 1 16 10
M  V30 25 1 23 17
M  V30 26 1 1 24
M  V30 27 1 1 25
M  V30 28 1 1 26
M  V30 29 1 4 27
M  V30 30 1 4 28
M  V30 31 1 5 29
M  V30 32 1 6 30
M  V30 33 1 8 31
M  V30 34 1 11 32
M  V30 35 1 12 33
M  V30 36 1 14 34
M  V30 37 1 14 35
M  V30 38 1 15 36
M  V30 39 1 16 37
M  V30 40 1 18 38
M  V30 41 1 19 39
M  V30 42 1 21 40
M  V30 43 1 22 41
M  V30 44 1 23 42
M  V30 END BOND
M  V30 END CTAB
M  END
