
     RDKit          3D

  0  0  0  0  0  0  0  0  0  0999 V3000
M  V30 BEGIN CTAB
M  V30 COUNTS 26 26 0 0 0
M  V30 BEGIN ATOM
M  V30 1 C 2.98009 1.26301 0.759212 0
M  V30 2 O 2.85326 -0.102168 0.642532 0
M  V30 3 C 3.06984 -0.493777 -0.648931 0
M  V30 4 C 2.03901 0.038377 -1.6363 0
M  V30 5 O 0.784388 -0.283583 -1.502 0
M  V30 6 C -0.387432 -0.364525 -0.914157 0
M  V30 7 C -1.45378 -1.01641 -1.58916 0
M  V30 8 N -2.6599 -1.1317 -1.05151 0
M  V30 9 C -2.99533 -0.656956 0.15808 0
M  V30 10 C -2.00134 -0.0153137 0.858257 0
M  V30 11 C -0.733773 0.130604 0.344914 0
M  V30 12 N -2.31596 0.508369 2.15672 0
M  V30 13 N -4.29891 -0.800258 0.700251 0
M  V30 14 H 2.83156 1.6112 1.81089 0
M  V30 15 H 2.14921 1.74709 0.189848 0
M  V30 16 H 3.94203 1.57513 0.36404 0
M  V30 17 H 3.03221 -1.60863 -0.664014 0
M  V30 18 H 4.09809 -0.16518 -0.952733 0
M  V30 19 H 2.27933 1.15141 -1.69345 0
M  V30 20 H 2.39925 -0.286837 -2.69406 0
M  V30 21 H -1.23419 -1.42113 -2.5775 0
M  V30 22 H 0.0319769 0.638068 0.90767 0
M  V30 23 H -3.26209 0.823856 2.40484 0
M  V30 24 H -1.55718 0.568645 2.86743 0
M  V30 25 H -5.09562 -0.881464 0.0420925 0
M  V30 26 H -4.49476 -0.827823 1.71704 0
M  V30 END ATOM
M  V30 BEGIN BOND
M  V30 1 1 1 2
M  V30 2 1 2 3
M  V30 3 1 3 4
M  V30 4 1 4 5
M  V30 5 1 5 6
M  V30 6 2 6 7
M  V30 7 1 7 8
M  V30 8 2 8 9
M  V30 9 1 9 10
M  V30 10 2 10 11
M  V30 11 1 10 12
M  V30 12 1 9 13
M  V30 13 1 11 6
M  V30 14 1 1 14
M  V30 15 1 1 15
M  V30 16 1 1 16
M  V30 17 1 3 17
M  V30 18 1 3 18
M  V30 19 1 4 19
M  V30 20 1 4 20
M  V30 21 1 7 21
M  V30 22 1 11 22
M  V30 23 1 12 23
M  V30 24 1 12 24
M  V30 25 1 13 25
M  V30 26 1 13 26
M  V30 END BOND
M  V30 END CTAB
M  END
