
     RDKit          3D

  0  0  0  0  0  0  0  0  0  0999 V3000
M  V30 BEGIN CTAB
M  V30 COUNTS 38 39 0 0 0
M  V30 BEGIN ATOM
M  V30 1 N 4.09672 1.16226 1.23342 0
M  V30 2 C 3.78494 0.576623 -0.0076135 0 CFG=2
M  V30 3 C 2.50497 1.06402 -0.632946 0
M  V30 4 C 1.99775 -0.156002 -1.36295 0
M  V30 5 N 2.48273 -1.30193 -0.708631 0
M  V30 6 C 3.64573 -0.925186 0.0713983 0
M  V30 7 C 1.59302 -2.15808 -0.0171681 0
M  V30 8 C 0.981164 -1.66543 1.23239 0
M  V30 9 O 0.182354 -0.574297 1.2557 0
M  V30 10 C -0.996311 -0.222852 0.700541 0
M  V30 11 C -1.49011 1.05132 0.992755 0
M  V30 12 C -2.67511 1.52114 0.488538 0
M  V30 13 C -3.43602 0.734678 -0.342604 0
M  V30 14 C -2.98259 -0.512853 -0.64717 0
M  V30 15 C -1.77178 -0.994581 -0.132115 0
M  V30 16 S -4.95426 1.35366 -0.981722 0
M  V30 17 O -4.88452 2.82493 -1.20172 0
M  V30 18 O -5.24118 0.725238 -2.33753 0
M  V30 19 N -6.24818 0.957012 0.0577193 0
M  V30 20 H 4.10771 2.16088 1.25274 0
M  V30 21 H 4.83726 0.685479 1.72108 0
M  V30 22 H 4.61014 0.865601 -0.724155 0
M  V30 23 H 2.71727 1.90939 -1.35194 0
M  V30 24 H 1.80134 1.49259 0.0953616 0
M  V30 25 H 0.950028 -0.136542 -1.64296 0
M  V30 26 H 2.55358 -0.115154 -2.36836 0
M  V30 27 H 3.62912 -1.31129 1.09345 0
M  V30 28 H 4.52664 -1.36697 -0.442694 0
M  V30 29 H 0.838972 -2.52815 -0.749688 0
M  V30 30 H 2.19974 -3.08932 0.238659 0
M  V30 31 H 1.79491 -1.50611 2.01381 0
M  V30 32 H 0.396033 -2.52314 1.71472 0
M  V30 33 H -0.927514 1.7036 1.63967 0
M  V30 34 H -3.05745 2.50821 0.716237 0
M  V30 35 H -3.58556 -1.12396 -1.30074 0
M  V30 36 H -1.43405 -1.97639 -0.379004 0
M  V30 37 H -5.88928 0.829742 1.02078 0
M  V30 38 H -6.65819 0.0618824 -0.238348 0
M  V30 END ATOM
M  V30 BEGIN BOND
M  V30 1 1 1 2
M  V30 2 1 2 3
M  V30 3 1 3 4
M  V30 4 1 4 5
M  V30 5 1 5 6
M  V30 6 1 5 7
M  V30 7 1 7 8
M  V30 8 1 8 9
M  V30 9 1 9 10
M  V30 10 2 10 11
M  V30 11 1 11 12
M  V30 12 2 12 13
M  V30 13 1 13 14
M  V30 14 2 14 15
M  V30 15 1 13 16
M  V30 16 2 16 17
M  V30 17 2 16 18
M  V30 18 1 16 19
M  V30 19 1 6 2
M  V30 20 1 15 10
M  V30 21 1 1 20
M  V30 22 1 1 21
M  V30 23 1 2 22 CFG=3
M  V30 24 1 3 23
M  V30 25 1 3 24
M  V30 26 1 4 25
M  V30 27 1 4 26
M  V30 28 1 6 27
M  V30 29 1 6 28
M  V30 30 1 7 29
M  V30 31 1 7 30
M  V30 32 1 8 31
M  V30 33 1 8 32
M  V30 34 1 11 33
M  V30 35 1 12 34
M  V30 36 1 14 35
M  V30 37 1 15 36
M  V30 38 1 19 37
M  V30 39 1 19 38
M  V30 END BOND
M  V30 END CTAB
M  END
