
     RDKit          3D

  0  0  0  0  0  0  0  0  0  0999 V3000
M  V30 BEGIN CTAB
M  V30 COUNTS 132 136 0 0 0
M  V30 BEGIN ATOM
M  V30 1 C 1.52477 6.62357 1.77023 0
M  V30 2 C 0.964587 6.45755 0.358006 0
M  V30 3 C -0.425533 7.07455 0.274536 0
M  V30 4 C 1.91115 7.06613 -0.626016 0
M  V30 5 C 0.814654 4.9959 0.14413 0
M  V30 6 C -0.400403 4.38553 0.188973 0
M  V30 7 C -0.601085 3.00671 -0.0166487 0
M  V30 8 C 0.475593 2.15424 -0.290554 0
M  V30 9 O 0.292017 0.793451 -0.509115 0
M  V30 10 C 1.71055 2.77498 -0.331493 0
M  V30 11 C 3.13054 2.2318 -0.551698 0
M  V30 12 C 3.22924 0.744504 -0.696467 0
M  V30 13 C 3.23784 -0.285673 0.228621 0
M  V30 14 O 3.4391 -0.0199688 1.66814 0
M  V30 15 C 4.73906 -0.00296027 2.19776 0
M  V30 16 C 4.68049 0.276856 3.66254 0
M  V30 17 C 4.03705 1.59518 4.01751 0
M  V30 18 C 4.07288 1.80314 5.54836 0
M  V30 19 N 5.47064 1.78705 5.96244 0
M  V30 20 C 3.06391 -1.56805 -0.239866 0
M  V30 21 C 2.78633 -2.88527 0.47656 0
M  V30 22 C 1.27838 -3.14402 0.564348 0
M  V30 23 C 0.289052 -2.50728 1.28343 0
M  V30 24 O 0.536727 -1.5116 2.26516 0
M  V30 25 C -1.02851 -2.91861 1.00134 0
M  V30 26 C -2.34732 -2.31538 1.47911 0
M  V30 27 C -2.64199 -0.98509 0.788017 0
M  V30 28 C -2.33553 0.310067 1.17063 0
M  V30 29 O -1.86453 0.614491 2.48794 0
M  V30 30 C -2.36061 1.02172 3.64584 0
M  V30 31 C -3.44566 0.331141 4.38096 0
M  V30 32 C -4.74945 0.359495 3.64495 0
M  V30 33 C -5.86502 -0.351532 4.41033 0
M  V30 34 N -7.05158 -0.205122 3.56386 0
M  V30 35 C -2.52655 1.30482 0.20916 0
M  V30 36 C -2.09027 2.72341 0.153338 0
M  V30 37 C -3.03037 0.952397 -1.06753 0
M  V30 38 C -3.34535 -0.308224 -1.46018 0
M  V30 39 C -3.13328 -1.25675 -0.498088 0
M  V30 40 C -3.86304 -0.666792 -2.79539 0
M  V30 41 C -3.02006 -1.72682 -3.47713 0
M  V30 42 C -4.0168 0.548963 -3.67967 0
M  V30 43 C -5.23754 -1.28401 -2.614 0
M  V30 44 C -1.27526 -3.91469 0.0678755 0
M  V30 45 C -0.311122 -4.56546 -0.646967 0
M  V30 46 C 0.958006 -4.14762 -0.371455 0
M  V30 47 C -0.616284 -5.63105 -1.61919 0
M  V30 48 C -0.299367 -6.98458 -0.982143 0
M  V30 49 C 0.312957 -5.4765 -2.8026 0
M  V30 50 C -2.03058 -5.54605 -2.08901 0
M  V30 51 C 2.90535 -1.796 -1.6224 0
M  V30 52 C 2.89944 -0.821521 -2.5756 0
M  V30 53 C 3.06196 0.435086 -2.07169 0
M  V30 54 C 2.7184 -1.10423 -4.01957 0
M  V30 55 C 3.71011 -0.274267 -4.79225 0
M  V30 56 C 1.32687 -0.809389 -4.48864 0
M  V30 57 C 3.08485 -2.56408 -4.27271 0
M  V30 58 C 1.85109 4.16865 -0.115614 0
M  V30 59 H 2.56612 6.26004 1.72145 0
M  V30 60 H 0.976549 5.92374 2.4454 0
M  V30 61 H 1.447 7.66919 2.12794 0
M  V30 62 H -0.922068 6.76507 -0.641401 0
M  V30 63 H -0.967314 6.88196 1.20179 0
M  V30 64 H -0.248614 8.18464 0.229461 0
M  V30 65 H 1.33012 7.4827 -1.48224 0
M  V30 66 H 2.71733 6.4321 -0.992047 0
M  V30 67 H 2.35542 7.97552 -0.1294 0
M  V30 68 H -1.28542 5.04115 0.398662 0
M  V30 69 H 0.259383 -0.0608516 -0.655868 0
M  V30 70 H 3.85591 2.73089 0.118249 0
M  V30 71 H 3.48854 2.73145 -1.53774 0
M  V30 72 H 5.27538 0.877897 1.73276 0
M  V30 73 H 5.35078 -0.875092 1.95308 0
M  V30 74 H 4.07341 -0.504687 4.21056 0
M  V30 75 H 5.7095 0.216876 4.12788 0
M  V30 76 H 4.50729 2.46758 3.56293 0
M  V30 77 H 2.94353 1.60272 3.77571 0
M  V30 78 H 3.57035 2.7581 5.74678 0
M  V30 79 H 3.5142 0.952803 6.01282 0
M  V30 80 H 5.64587 0.904675 6.48228 0
M  V30 81 H 6.11952 1.99122 5.17888 0
M  V30 82 H 3.34603 -3.17748 1.35451 0
M  V30 83 H 3.26549 -3.68431 -0.227664 0
M  V30 84 H 0.951913 -0.957584 2.78251 0
M  V30 85 H -3.21618 -3.01653 1.08337 0
M  V30 86 H -2.62147 -2.47667 2.51405 0
M  V30 87 H -1.48772 1.07019 4.39043 0
M  V30 88 H -2.61537 2.15071 3.59316 0
M  V30 89 H -3.57776 0.721501 5.43649 0
M  V30 90 H -3.17406 -0.760543 4.52388 0
M  V30 91 H -5.12664 1.41996 3.54242 0
M  V30 92 H -4.73324 -0.0559009 2.65533 0
M  V30 93 H -6.00481 0.0398598 5.41756 0
M  V30 94 H -5.57402 -1.44058 4.40779 0
M  V30 95 H -6.76241 -0.574534 2.61174 0
M  V30 96 H -7.21676 0.814387 3.47861 0
M  V30 97 H -2.48557 3.39826 0.951659 0
M  V30 98 H -2.60507 3.27377 -0.742947 0
M  V30 99 H -3.20021 1.73745 -1.84016 0
M  V30 100 H -3.38925 -2.29067 -0.815992 0
M  V30 101 H -2.46114 -1.21464 -4.29287 0
M  V30 102 H -3.64348 -2.49115 -3.97133 0
M  V30 103 H -2.3445 -2.2357 -2.76835 0
M  V30 104 H -3.10732 1.17907 -3.7326 0
M  V30 105 H -4.94093 1.09118 -3.43859 0
M  V30 106 H -4.18642 0.191181 -4.74495 0
M  V30 107 H -5.29365 -1.64848 -1.55266 0
M  V30 108 H -5.39369 -2.13085 -3.31141 0
M  V30 109 H -6.00775 -0.471599 -2.69155 0
M  V30 110 H -2.32841 -4.2458 -0.123049 0
M  V30 111 H 1.75735 -4.67625 -0.945357 0
M  V30 112 H 0.76877 -7.0513 -0.831766 0
M  V30 113 H -0.800089 -7.08844 0.000963854 0
M  V30 114 H -0.587942 -7.7907 -1.70756 0
M  V30 115 H 0.448532 -4.38641 -3.02391 0
M  V30 116 H -0.0987316 -6.04169 -3.6531 0
M  V30 117 H 1.27327 -5.95508 -2.50901 0
M  V30 118 H -2.06792 -6.02107 -3.1098 0
M  V30 119 H -2.68182 -6.20265 -1.46364 0
M  V30 120 H -2.34041 -4.49709 -2.11343 0
M  V30 121 H 2.7647 -2.83336 -2.01866 0
M  V30 122 H 3.05977 1.25895 -2.82629 0
M  V30 123 H 4.27332 0.436829 -4.17051 0
M  V30 124 H 3.21234 0.339301 -5.57327 0
M  V30 125 H 4.49842 -0.90881 -5.29497 0
M  V30 126 H 0.656732 -1.6408 -4.17545 0
M  V30 127 H 1.0232 0.167414 -4.14266 0
M  V30 128 H 1.34583 -0.741362 -5.61547 0
M  V30 129 H 3.40932 -2.62503 -5.34224 0
M  V30 130 H 4.00513 -2.75374 -3.66686 0
M  V30 131 H 2.25336 -3.18696 -4.01858 0
M  V30 132 H 2.87797 4.61129 -0.166129 0
M  V30 END ATOM
M  V30 BEGIN BOND
M  V30 1 1 1 2
M  V30 2 1 2 3
M  V30 3 1 2 4
M  V30 4 1 2 5
M  V30 5 2 5 6
M  V30 6 1 6 7
M  V30 7 2 7 8
M  V30 8 1 8 9
M  V30 9 1 8 10
M  V30 10 1 10 11
M  V30 11 1 11 12
M  V30 12 2 12 13
M  V30 13 1 13 14
M  V30 14 1 14 15
M  V30 15 1 15 16
M  V30 16 1 16 17
M  V30 17 1 17 18
M  V30 18 1 18 19
M  V30 19 1 13 20
M  V30 20 1 20 21
M  V30 21 1 21 22
M  V30 22 2 22 23
M  V30 23 1 23 24
M  V30 24 1 23 25
M  V30 25 1 25 26
M  V30 26 1 26 27
M  V30 27 2 27 28
M  V30 28 1 28 29
M  V30 29 1 29 30
M  V30 30 1 30 31
M  V30 31 1 31 32
M  V30 32 1 32 33
M  V30 33 1 33 34
M  V30 34 1 28 35
M  V30 35 1 35 36
M  V30 36 2 35 37
M  V30 37 1 37 38
M  V30 38 2 38 39
M  V30 39 1 38 40
M  V30 40 1 40 41
M  V30 41 1 40 42
M  V30 42 1 40 43
M  V30 43 2 25 44
M  V30 44 1 44 45
M  V30 45 2 45 46
M  V30 46 1 45 47
M  V30 47 1 47 48
M  V30 48 1 47 49
M  V30 49 1 47 50
M  V30 50 2 20 51
M  V30 51 1 51 52
M  V30 52 2 52 53
M  V30 53 1 52 54
M  V30 54 1 54 55
M  V30 55 1 54 56
M  V30 56 1 54 57
M  V30 57 2 10 58
M  V30 58 1 58 5
M  V30 59 1 36 7
M  V30 60 1 53 12
M  V30 61 1 46 22
M  V30 62 1 39 27
M  V30 63 1 1 59
M  V30 64 1 1 60
M  V30 65 1 1 61
M  V30 66 1 3 62
M  V30 67 1 3 63
M  V30 68 1 3 64
M  V30 69 1 4 65
M  V30 70 1 4 66
M  V30 71 1 4 67
M  V30 72 1 6 68
M  V30 73 1 9 69
M  V30 74 1 11 70
M  V30 75 1 11 71
M  V30 76 1 15 72
M  V30 77 1 15 73
M  V30 78 1 16 74
M  V30 79 1 16 75
M  V30 80 1 17 76
M  V30 81 1 17 77
M  V30 82 1 18 78
M  V30 83 1 18 79
M  V30 84 1 19 80
M  V30 85 1 19 81
M  V30 86 1 21 82
M  V30 87 1 21 83
M  V30 88 1 24 84
M  V30 89 1 26 85
M  V30 90 1 26 86
M  V30 91 1 30 87
M  V30 92 1 30 88
M  V30 93 1 31 89
M  V30 94 1 31 90
M  V30 95 1 32 91
M  V30 96 1 32 92
M  V30 97 1 33 93
M  V30 98 1 33 94
M  V30 99 1 34 95
M  V30 100 1 34 96
M  V30 101 1 36 97
M  V30 102 1 36 98
M  V30 103 1 37 99
M  V30 104 1 39 100
M  V30 105 1 41 101
M  V30 106 1 41 102
M  V30 107 1 41 103
M  V30 108 1 42 104
M  V30 109 1 42 105
M  V30 110 1 42 106
M  V30 111 1 43 107
M  V30 112 1 43 108
M  V30 113 1 43 109
M  V30 114 1 44 110
M  V30 115 1 46 111
M  V30 116 1 48 112
M  V30 117 1 48 113
M  V30 118 1 48 114
M  V30 119 1 49 115
M  V30 120 1 49 116
M  V30 121 1 49 117
M  V30 122 1 50 118
M  V30 123 1 50 119
M  V30 124 1 50 120
M  V30 125 1 51 121
M  V30 126 1 53 122
M  V30 127 1 55 123
M  V30 128 1 55 124
M  V30 129 1 55 125
M  V30 130 1 56 126
M  V30 131 1 56 127
M  V30 132 1 56 128
M  V30 133 1 57 129
M  V30 134 1 57 130
M  V30 135 1 57 131
M  V30 136 1 58 132
M  V30 END BOND
M  V30 END CTAB
M  END
