
     RDKit          3D

  0  0  0  0  0  0  0  0  0  0999 V3000
M  V30 BEGIN CTAB
M  V30 COUNTS 40 42 0 0 0
M  V30 BEGIN ATOM
M  V30 1 N -2.07286 3.94459 0.427923 0
M  V30 2 C -1.77568 2.75967 -0.36833 0
M  V30 3 C -1.16714 1.74983 0.577275 0
M  V30 4 N -0.808143 0.519236 -0.0442174 0
M  V30 5 C 0.262954 0.387361 -1.01266 0 CFG=2
M  V30 6 C 0.0067653 -0.53102 -2.13943 0
M  V30 7 C -1.04899 -1.5473 -1.99273 0
M  V30 8 C -1.65058 -1.67877 -0.659734 0
M  V30 9 C -1.52828 -0.672878 0.284484 0
M  V30 10 C -2.09439 -0.817996 1.53175 0
M  V30 11 C -2.79525 -1.95696 1.87861 0
M  V30 12 C -2.91933 -2.95481 0.947804 0
M  V30 13 C -2.35064 -2.8049 -0.29864 0
M  V30 14 C 1.59715 0.165955 -0.391441 0
M  V30 15 C 2.73379 0.845574 -0.804071 0
M  V30 16 C 3.96627 0.641024 -0.230483 0
M  V30 17 C 4.09584 -0.263366 0.787795 0
M  V30 18 N 2.98144 -0.932747 1.1958 0
M  V30 19 C 1.77423 -0.735367 0.636818 0
M  V30 20 N 5.35438 -0.521004 1.42759 0
M  V30 21 H -2.8187 3.73672 1.12938 0
M  V30 22 H -1.21663 4.19998 0.98594 0
M  V30 23 H -1.14184 3.04789 -1.20138 0
M  V30 24 H -2.77582 2.3716 -0.690526 0
M  V30 25 H -1.85559 1.69774 1.42943 0
M  V30 26 H -0.237023 2.2359 0.993318 0
M  V30 27 H 0.342596 1.43361 -1.44716 0
M  V30 28 H -0.199377 0.0273809 -3.10207 0
M  V30 29 H 0.984375 -1.05502 -2.37086 0
M  V30 30 H -1.89937 -1.40158 -2.71127 0
M  V30 31 H -0.659538 -2.57917 -2.25837 0
M  V30 32 H -1.99622 -0.0452468 2.26594 0
M  V30 33 H -3.23886 -2.04946 2.87592 0
M  V30 34 H -3.46199 -3.85398 1.19112 0
M  V30 35 H -2.44667 -3.59136 -1.03751 0
M  V30 36 H 2.68252 1.57172 -1.60663 0
M  V30 37 H 4.86103 1.18538 -0.56586 0
M  V30 38 H 0.962286 -1.32756 1.04492 0
M  V30 39 H 5.44228 -0.189431 2.41559 0
M  V30 40 H 6.11099 -1.01124 0.905961 0
M  V30 END ATOM
M  V30 BEGIN BOND
M  V30 1 1 1 2
M  V30 2 1 2 3
M  V30 3 1 3 4
M  V30 4 1 4 5
M  V30 5 1 5 6
M  V30 6 1 6 7
M  V30 7 1 7 8
M  V30 8 2 8 9
M  V30 9 1 9 10
M  V30 10 2 10 11
M  V30 11 1 11 12
M  V30 12 2 12 13
M  V30 13 1 5 14
M  V30 14 2 14 15
M  V30 15 1 15 16
M  V30 16 2 16 17
M  V30 17 1 17 18
M  V30 18 2 18 19
M  V30 19 1 17 20
M  V30 20 1 9 4
M  V30 21 1 19 14
M  V30 22 1 13 8
M  V30 23 1 1 21
M  V30 24 1 1 22
M  V30 25 1 2 23
M  V30 26 1 2 24
M  V30 27 1 3 25
M  V30 28 1 3 26
M  V30 29 1 5 27 CFG=3
M  V30 30 1 6 28
M  V30 31 1 6 29
M  V30 32 1 7 30
M  V30 33 1 7 31
M  V30 34 1 10 32
M  V30 35 1 11 33
M  V30 36 1 12 34
M  V30 37 1 13 35
M  V30 38 1 15 36
M  V30 39 1 16 37
M  V30 40 1 19 38
M  V30 41 1 20 39
M  V30 42 1 20 40
M  V30 END BOND
M  V30 END CTAB
M  END
