
     RDKit          3D

  0  0  0  0  0  0  0  0  0  0999 V3000
M  V30 BEGIN CTAB
M  V30 COUNTS 25 25 0 0 0
M  V30 BEGIN ATOM
M  V30 1 C -1.39246 1.99191 -0.182059 0
M  V30 2 C -1.31603 0.512355 -0.140951 0
M  V30 3 C -2.46225 -0.168879 -0.497556 0
M  V30 4 C -2.54934 -1.53856 -0.491445 0
M  V30 5 C -1.41592 -2.21648 -0.104399 0
M  V30 6 C -0.244218 -1.54856 0.260789 0
M  V30 7 C -0.168352 -0.172538 0.249736 0
M  V30 8 C 1.01769 0.611787 0.618239 0
M  V30 9 C 2.25268 -0.248166 0.889121 0
M  V30 10 N 2.59465 -0.969914 -0.29695 0
M  V30 11 N 1.33524 1.622 -0.373274 0
M  V30 12 F -1.44468 -3.56589 -0.0799501 0
M  V30 13 H -1.0085 2.41802 -1.10425 0
M  V30 14 H -2.48057 2.30418 -0.150326 0
M  V30 15 H -0.877927 2.35371 0.737716 0
M  V30 16 H -3.36333 0.37408 -0.805088 0
M  V30 17 H -3.44903 -2.08016 -0.771535 0
M  V30 18 H 0.60124 -2.15338 0.566782 0
M  V30 19 H 0.798731 1.15029 1.56232 0
M  V30 20 H 2.05985 -0.969919 1.7005 0
M  V30 21 H 3.11795 0.385469 1.16504 0
M  V30 22 H 3.35926 -1.64067 -0.193907 0
M  V30 23 H 2.57534 -0.431697 -1.16747 0
M  V30 24 H 1.33976 2.58549 -0.0568655 0
M  V30 25 H 1.12022 1.39551 -1.33422 0
M  V30 END ATOM
M  V30 BEGIN BOND
M  V30 1 1 1 2
M  V30 2 2 2 3
M  V30 3 1 3 4
M  V30 4 2 4 5
M  V30 5 1 5 6
M  V30 6 2 6 7
M  V30 7 1 7 8
M  V30 8 1 8 9
M  V30 9 1 9 10
M  V30 10 1 8 11
M  V30 11 1 5 12
M  V30 12 1 7 2
M  V30 13 1 1 13
M  V30 14 1 1 14
M  V30 15 1 1 15
M  V30 16 1 3 16
M  V30 17 1 4 17
M  V30 18 1 6 18
M  V30 19 1 8 19
M  V30 20 1 9 20
M  V30 21 1 9 21
M  V30 22 1 10 22
M  V30 23 1 10 23
M  V30 24 1 11 24
M  V30 25 1 11 25
M  V30 END BOND
M  V30 END CTAB
M  END
