
     RDKit          3D

  0  0  0  0  0  0  0  0  0  0999 V3000
M  V30 BEGIN CTAB
M  V30 COUNTS 54 57 0 0 0
M  V30 BEGIN ATOM
M  V30 1 C 2.40328 -0.522777 3.33235 0
M  V30 2 C 2.44928 -0.663694 1.82742 0
M  V30 3 C 3.76272 -0.750657 1.25536 0
M  V30 4 C 4.30765 0.329461 0.549769 0
M  V30 5 C 5.55469 0.283799 0.00858353 0
M  V30 6 C 6.31842 -0.84734 0.146961 0
M  V30 7 C 7.57973 -0.897946 -0.399912 0
M  V30 8 C 8.08739 0.172643 -1.08567 0
M  V30 9 N 7.33066 1.25449 -1.2063 0
M  V30 10 C 6.09824 1.3616 -0.696566 0
M  V30 11 N 5.29995 2.52059 -0.832845 0
M  V30 12 C 5.83229 -1.95149 0.835625 0
M  V30 13 C 4.56799 -1.87465 1.3716 0
M  V30 14 C 1.33593 -0.58293 1.11767 0
M  V30 15 F 0.203378 -0.350243 1.90206 0
M  V30 16 C 1.30738 -0.85773 -0.270638 0
M  V30 17 O 2.43275 -1.27892 -0.789124 0
M  V30 18 N 0.252269 -0.741021 -1.15339 0
M  V30 19 C -1.07566 -0.294758 -1.0284 0
M  V30 20 C -1.91539 -0.347788 -2.16074 0
M  V30 21 C -3.21912 0.0960087 -2.09793 0
M  V30 22 C -3.77896 0.607533 -0.956081 0
M  V30 23 C -2.92601 0.64818 0.146224 0
M  V30 24 N -1.6683 0.209676 0.0480254 0
M  V30 25 C -5.14611 1.05834 -0.818793 0
M  V30 26 C -6.21004 0.204525 -0.826473 0
M  V30 27 C -7.50977 0.727371 -0.721494 0
M  V30 28 C -7.73728 2.07707 -0.609846 0
M  V30 29 C -6.66706 2.95653 -0.599221 0
M  V30 30 C -5.41953 2.42352 -0.703187 0
M  V30 31 S -5.96809 -1.51296 -0.922543 0
M  V30 32 N -4.96219 -2.02919 0.409538 0
M  V30 33 O -7.3259 -2.159 -0.642847 0
M  V30 34 O -5.50481 -2.02525 -2.22227 0
M  V30 35 H 1.39626 -0.335252 3.69872 0
M  V30 36 H 2.73854 -1.52291 3.71928 0
M  V30 37 H 3.09494 0.291753 3.57895 0
M  V30 38 H 3.72598 1.24166 0.42237 0
M  V30 39 H 8.17556 -1.80312 -0.282251 0
M  V30 40 H 9.08609 0.0738659 -1.49399 0
M  V30 41 H 4.98354 2.87916 -1.75099 0
M  V30 42 H 5.01562 3.03774 0.0196716 0
M  V30 43 H 6.42603 -2.84989 0.951521 0
M  V30 44 H 4.15443 -2.72379 1.91929 0
M  V30 45 H 0.540156 -1.03886 -2.18432 0
M  V30 46 H -1.50533 -0.749231 -3.0849 0
M  V30 47 H -3.84324 0.0685594 -2.99127 0
M  V30 48 H -3.32723 1.04998 1.08343 0
M  V30 49 H -8.3459 0.0533979 -0.72876 0
M  V30 50 H -8.72985 2.51139 -0.526752 0
M  V30 51 H -6.82452 4.02905 -0.51144 0
M  V30 52 H -4.56706 3.08253 -0.69747 0
M  V30 53 H -5.17276 -1.48263 1.25329 0
M  V30 54 H -5.11104 -3.05639 0.500019 0
M  V30 END ATOM
M  V30 BEGIN BOND
M  V30 1 1 1 2
M  V30 2 1 2 3
M  V30 3 2 3 4
M  V30 4 1 4 5
M  V30 5 2 5 6
M  V30 6 1 6 7
M  V30 7 2 7 8
M  V30 8 1 8 9
M  V30 9 2 9 10
M  V30 10 1 10 11
M  V30 11 1 6 12
M  V30 12 2 12 13
M  V30 13 2 2 14
M  V30 14 1 14 15
M  V30 15 1 14 16
M  V30 16 2 16 17
M  V30 17 1 16 18
M  V30 18 1 18 19
M  V30 19 2 19 20
M  V30 20 1 20 21
M  V30 21 2 21 22
M  V30 22 1 22 23
M  V30 23 2 23 24
M  V30 24 1 22 25
M  V30 25 2 25 26
M  V30 26 1 26 27
M  V30 27 2 27 28
M  V30 28 1 28 29
M  V30 29 2 29 30
M  V30 30 1 26 31
M  V30 31 1 31 32
M  V30 32 2 31 33
M  V30 33 2 31 34
M  V30 34 1 13 3
M  V30 35 1 24 19
M  V30 36 1 30 25
M  V30 37 1 10 5
M  V30 38 1 1 35
M  V30 39 1 1 36
M  V30 40 1 1 37
M  V30 41 1 4 38
M  V30 42 1 7 39
M  V30 43 1 8 40
M  V30 44 1 11 41
M  V30 45 1 11 42
M  V30 46 1 12 43
M  V30 47 1 13 44
M  V30 48 1 18 45
M  V30 49 1 20 46
M  V30 50 1 21 47
M  V30 51 1 23 48
M  V30 52 1 27 49
M  V30 53 1 28 50
M  V30 54 1 29 51
M  V30 55 1 30 52
M  V30 56 1 32 53
M  V30 57 1 32 54
M  V30 END BOND
M  V30 END CTAB
M  END
