
     RDKit          3D

  0  0  0  0  0  0  0  0  0  0999 V3000
M  V30 BEGIN CTAB
M  V30 COUNTS 15 15 0 0 0
M  V30 BEGIN ATOM
M  V30 1 N -2.39352 -1.25224 -0.145561 0
M  V30 2 C -1.17761 -0.521633 -0.0596788 0
M  V30 3 N 0.0269002 -1.12441 -0.115488 0
M  V30 4 C 1.16279 -0.41436 -0.0323221 0
M  V30 5 N 2.45012 -1.04301 -0.0903035 0
M  V30 6 C 1.16237 0.963925 0.114065 0
M  V30 7 F 2.33347 1.63882 0.193751 0
M  V30 8 C -0.0511012 1.62419 0.175917 0
M  V30 9 Cl -0.118578 3.3735 0.361226 0
M  V30 10 C -1.18552 0.854343 0.0864144 0
M  V30 11 F -2.37245 1.50342 0.147256 0
M  V30 12 H -2.95899 -1.1701 -1.00439 0
M  V30 13 H -2.71082 -1.85166 0.625407 0
M  V30 14 H 3.26159 -0.728504 0.482042 0
M  V30 15 H 2.57136 -1.85229 -0.738332 0
M  V30 END ATOM
M  V30 BEGIN BOND
M  V30 1 1 1 2
M  V30 2 2 2 3
M  V30 3 1 3 4
M  V30 4 1 4 5
M  V30 5 2 4 6
M  V30 6 1 6 7
M  V30 7 1 6 8
M  V30 8 1 8 9
M  V30 9 2 8 10
M  V30 10 1 10 11
M  V30 11 1 10 2
M  V30 12 1 1 12
M  V30 13 1 1 13
M  V30 14 1 5 14
M  V30 15 1 5 15
M  V30 END BOND
M  V30 END CTAB
M  END
