
     RDKit          3D

  0  0  0  0  0  0  0  0  0  0999 V3000
M  V30 BEGIN CTAB
M  V30 COUNTS 27 28 0 0 0
M  V30 BEGIN ATOM
M  V30 1 N -4.57464 1.36059 0.807557 0
M  V30 2 C -3.30233 0.785473 0.443737 0
M  V30 3 N -2.15033 1.39333 0.735009 0
M  V30 4 C -0.96591 0.827472 0.379569 0
M  V30 5 C -0.911181 -0.377402 -0.285116 0
M  V30 6 C 0.330466 -1.01158 -0.680262 0
M  V30 7 C 1.5572 -0.314913 -0.342933 0
M  V30 8 C 2.14063 -0.597869 0.882283 0
M  V30 9 C 3.29292 -0.00284737 1.30199 0
M  V30 10 C 3.93881 0.918785 0.517827 0
M  V30 11 Cl 5.43289 1.70237 1.04111 0
M  V30 12 C 3.36937 1.20956 -0.70329 0
M  V30 13 C 2.20318 0.607803 -1.12884 0
M  V30 14 C -2.11246 -0.988917 -0.576563 0
M  V30 15 N -2.16719 -2.22495 -1.2543 0
M  V30 16 N -3.27601 -0.379393 -0.197885 0
M  V30 17 H -4.67131 2.38552 0.950487 0
M  V30 18 H -5.38451 0.723397 0.921278 0
M  V30 19 H -0.0654181 1.33774 0.626567 0
M  V30 20 H 0.308643 -1.15732 -1.79734 0
M  V30 21 H 0.353098 -2.04135 -0.224552 0
M  V30 22 H 1.6816 -1.32511 1.56482 0
M  V30 23 H 3.71956 -0.248036 2.26428 0
M  V30 24 H 3.8788 1.93949 -1.32697 0
M  V30 25 H 1.74998 0.833253 -2.09037 0
M  V30 26 H -2.02278 -2.26581 -2.27105 0
M  V30 27 H -2.35307 -3.08927 -0.724414 0
M  V30 END ATOM
M  V30 BEGIN BOND
M  V30 1 1 1 2
M  V30 2 2 2 3
M  V30 3 1 3 4
M  V30 4 2 4 5
M  V30 5 1 5 6
M  V30 6 1 6 7
M  V30 7 2 7 8
M  V30 8 1 8 9
M  V30 9 2 9 10
M  V30 10 1 10 11
M  V30 11 1 10 12
M  V30 12 2 12 13
M  V30 13 1 5 14
M  V30 14 1 14 15
M  V30 15 2 14 16
M  V30 16 1 16 2
M  V30 17 1 13 7
M  V30 18 1 1 17
M  V30 19 1 1 18
M  V30 20 1 4 19
M  V30 21 1 6 20
M  V30 22 1 6 21
M  V30 23 1 8 22
M  V30 24 1 9 23
M  V30 25 1 12 24
M  V30 26 1 13 25
M  V30 27 1 15 26
M  V30 28 1 15 27
M  V30 END BOND
M  V30 END CTAB
M  END
