
     RDKit          3D

  0  0  0  0  0  0  0  0  0  0999 V3000
M  V30 BEGIN CTAB
M  V30 COUNTS 21 21 0 0 0
M  V30 BEGIN ATOM
M  V30 1 N -3.79991 0.592477 0.370373 0
M  V30 2 C -2.43391 0.212335 0.131189 0
M  V30 3 C -1.39519 1.07859 0.395759 0
M  V30 4 C -0.072305 0.745534 0.177638 0
M  V30 5 C 0.274908 -0.491941 -0.32421 0
M  V30 6 C -0.787305 -1.36783 -0.590831 0
M  V30 7 C -2.10383 -1.02686 -0.370008 0
M  V30 8 Cl -0.377067 -2.94052 -1.22631 0
M  V30 9 N 1.59884 -0.896041 -0.564411 0
M  V30 10 S 2.92048 0.17385 -0.522893 0
M  V30 11 O 4.07137 -0.39982 -1.34536 0
M  V30 12 O 2.62895 1.50882 -1.08661 0
M  V30 13 N 3.57053 0.373684 1.07309 0
M  V30 14 H -4.35583 0.24108 1.16752 0
M  V30 15 H -4.27907 1.26463 -0.290777 0
M  V30 16 H -1.66845 2.06384 0.794984 0
M  V30 17 H 0.708338 1.47612 0.410716 0
M  V30 18 H -2.89696 -1.72345 -0.585567 0
M  V30 19 H 1.78842 -1.90291 -0.779473 0
M  V30 20 H 3.16657 -0.321799 1.74792 0
M  V30 21 H 3.44143 1.34022 1.41726 0
M  V30 END ATOM
M  V30 BEGIN BOND
M  V30 1 1 1 2
M  V30 2 2 2 3
M  V30 3 1 3 4
M  V30 4 2 4 5
M  V30 5 1 5 6
M  V30 6 2 6 7
M  V30 7 1 6 8
M  V30 8 1 5 9
M  V30 9 1 9 10
M  V30 10 2 10 11
M  V30 11 2 10 12
M  V30 12 1 10 13
M  V30 13 1 7 2
M  V30 14 1 1 14
M  V30 15 1 1 15
M  V30 16 1 3 16
M  V30 17 1 4 17
M  V30 18 1 7 18
M  V30 19 1 9 19
M  V30 20 1 13 20
M  V30 21 1 13 21
M  V30 END BOND
M  V30 END CTAB
M  END
