
     RDKit          3D

  0  0  0  0  0  0  0  0  0  0999 V3000
M  V30 BEGIN CTAB
M  V30 COUNTS 21 22 0 0 0
M  V30 BEGIN ATOM
M  V30 1 C 4.37246 0.33637 0.0364799 0
M  V30 2 C 2.86487 0.413477 0.0111996 0
M  V30 3 N 1.9972 -0.5462 0.276628 0
M  V30 4 C 0.722878 -0.312398 0.20823 0
M  V30 5 C 0.326278 0.950951 -0.145056 0
M  V30 6 S 1.84174 1.73276 -0.35926 0
M  V30 7 C -1.01962 1.32927 -0.253945 0
M  V30 8 C -2.0282 0.423196 -0.00382607 0
M  V30 9 N -3.36986 0.81515 -0.116511 0
M  V30 10 C -1.60953 -0.85433 0.353468 0
M  V30 11 N -2.70045 -1.75933 0.603069 0
M  V30 12 C -0.313957 -1.23634 0.46326 0
M  V30 13 H 4.75966 1.34533 0.334449 0
M  V30 14 H 4.67208 -0.430292 0.793066 0
M  V30 15 H 4.77095 0.0131192 -0.943961 0
M  V30 16 H -1.19833 2.34303 -0.537078 0
M  V30 17 H -4.02148 0.194782 -0.637953 0
M  V30 18 H -3.76651 1.68748 0.285643 0
M  V30 19 H -3.00316 -2.07029 1.5372 0
M  V30 20 H -3.20616 -2.11303 -0.232451 0
M  V30 21 H -0.0908683 -2.26272 0.75003 0
M  V30 END ATOM
M  V30 BEGIN BOND
M  V30 1 1 1 2
M  V30 2 2 2 3
M  V30 3 1 3 4
M  V30 4 2 4 5
M  V30 5 1 5 6
M  V30 6 1 5 7
M  V30 7 2 7 8
M  V30 8 1 8 9
M  V30 9 1 8 10
M  V30 10 1 10 11
M  V30 11 2 10 12
M  V30 12 1 6 2
M  V30 13 1 12 4
M  V30 14 1 1 13
M  V30 15 1 1 14
M  V30 16 1 1 15
M  V30 17 1 7 16
M  V30 18 1 9 17
M  V30 19 1 9 18
M  V30 20 1 11 19
M  V30 21 1 11 20
M  V30 22 1 12 21
M  V30 END BOND
M  V30 END CTAB
M  END
