
     RDKit          3D

  0  0  0  0  0  0  0  0  0  0999 V3000
M  V30 BEGIN CTAB
M  V30 COUNTS 47 50 0 0 0
M  V30 BEGIN ATOM
M  V30 1 C 0.971213 -1.43559 -0.700969 0
M  V30 2 C 0.898985 0.0100775 -0.375612 0
M  V30 3 C -0.324918 0.724413 -0.767758 0
M  V30 4 O -0.155292 1.63577 -1.60375 0
M  V30 5 C -1.69714 0.53132 -0.331441 0
M  V30 6 C -2.13993 -0.86783 -0.68681 0
M  V30 7 C -3.62601 -1.07722 -0.415554 0
M  V30 8 C -4.41881 -0.134658 -1.25229 0
M  V30 9 C -4.06411 1.27009 -0.811243 0
M  V30 10 C -2.60214 1.47011 -1.12182 0
M  V30 11 C -4.29174 1.48649 0.652379 0
M  V30 12 C -3.39177 0.545006 1.42167 0
M  V30 13 C -1.96408 0.864832 1.10795 0
M  V30 14 C -3.80525 -0.850796 1.07958 0
M  V30 15 S 2.37739 0.799138 -1.07337 0
M  V30 16 C 3.86874 0.275125 -0.297546 0
M  V30 17 N 4.32026 0.940673 0.762973 0
M  V30 18 C 5.43429 0.591602 1.38395 0
M  V30 19 N 5.86053 1.34735 2.5122 0
M  V30 20 C 6.14956 -0.477231 0.936084 0
M  V30 21 C 5.66864 -1.16289 -0.170212 0
M  V30 22 N 4.53658 -0.774243 -0.767288 0
M  V30 23 N 6.3615 -2.28304 -0.688694 0
M  V30 24 H 0.74094 -2.02276 0.228631 0
M  V30 25 H 0.339955 -1.78664 -1.51835 0
M  V30 26 H 2.01164 -1.77343 -0.961778 0
M  V30 27 H 0.996874 0.178203 0.744885 0
M  V30 28 H -1.59062 -1.64727 -0.120756 0
M  V30 29 H -1.91489 -1.02748 -1.75957 0
M  V30 30 H -3.84135 -2.14347 -0.608348 0
M  V30 31 H -5.49258 -0.315322 -1.24979 0
M  V30 32 H -4.05895 -0.231726 -2.29968 0
M  V30 33 H -4.6235 1.9837 -1.4336 0
M  V30 34 H -2.39319 1.42659 -2.20747 0
M  V30 35 H -2.34154 2.50519 -0.754212 0
M  V30 36 H -3.9798 2.522 0.888104 0
M  V30 37 H -5.35082 1.37964 0.924182 0
M  V30 38 H -3.57194 0.693664 2.51651 0
M  V30 39 H -1.81942 1.95513 1.23363 0
M  V30 40 H -1.31755 0.342048 1.8215 0
M  V30 41 H -4.86949 -0.963656 1.33464 0
M  V30 42 H -3.2051 -1.62294 1.59338 0
M  V30 43 H 6.85778 1.60422 2.64914 0
M  V30 44 H 5.17593 1.65464 3.2195 0
M  V30 45 H 7.05514 -0.78714 1.41457 0
M  V30 46 H 5.88575 -3.18828 -0.746309 0
M  V30 47 H 7.34024 -2.16341 -1.00053 0
M  V30 END ATOM
M  V30 BEGIN BOND
M  V30 1 1 1 2
M  V30 2 1 2 3
M  V30 3 2 3 4
M  V30 4 1 3 5
M  V30 5 1 5 6
M  V30 6 1 6 7
M  V30 7 1 7 8
M  V30 8 1 8 9
M  V30 9 1 9 10
M  V30 10 1 9 11
M  V30 11 1 11 12
M  V30 12 1 12 13
M  V30 13 1 12 14
M  V30 14 1 2 15
M  V30 15 1 15 16
M  V30 16 2 16 17
M  V30 17 1 17 18
M  V30 18 1 18 19
M  V30 19 2 18 20
M  V30 20 1 20 21
M  V30 21 2 21 22
M  V30 22 1 21 23
M  V30 23 1 13 5
M  V30 24 1 22 16
M  V30 25 1 10 5
M  V30 26 1 14 7
M  V30 27 1 1 24
M  V30 28 1 1 25
M  V30 29 1 1 26
M  V30 30 1 2 27
M  V30 31 1 6 28
M  V30 32 1 6 29
M  V30 33 1 7 30
M  V30 34 1 8 31
M  V30 35 1 8 32
M  V30 36 1 9 33
M  V30 37 1 10 34
M  V30 38 1 10 35
M  V30 39 1 11 36
M  V30 40 1 11 37
M  V30 41 1 12 38
M  V30 42 1 13 39
M  V30 43 1 13 40
M  V30 44 1 14 41
M  V30 45 1 14 42
M  V30 46 1 19 43
M  V30 47 1 19 44
M  V30 48 1 20 45
M  V30 49 1 23 46
M  V30 50 1 23 47
M  V30 END BOND
M  V30 END CTAB
M  END
