
     RDKit          3D

  0  0  0  0  0  0  0  0  0  0999 V3000
M  V30 BEGIN CTAB
M  V30 COUNTS 21 21 0 0 0
M  V30 BEGIN ATOM
M  V30 1 N 3.39268 0.134935 -0.745087 0
M  V30 2 C 2.04812 -0.0750212 -0.368707 0
M  V30 3 C 1.61341 -1.3615 -0.111716 0
M  V30 4 C 0.30662 -1.5249 0.249563 0
M  V30 5 C -0.618735 -0.491635 0.377811 0
M  V30 6 C -0.162773 0.781688 0.116691 0
M  V30 7 C 1.16734 0.979641 -0.254542 0
M  V30 8 C -1.08907 1.91507 0.233891 0
M  V30 9 F -0.388599 3.08904 -0.0798638 0
M  V30 10 F -2.15598 1.8284 -0.670483 0
M  V30 11 F -1.61511 2.10024 1.47372 0
M  V30 12 C -1.97449 -0.801327 0.768366 0
M  V30 13 S -2.35016 -0.855574 2.34183 0
M  V30 14 N -2.97487 -1.05778 -0.185382 0
M  V30 15 H 4.06279 0.580006 -0.0941098 0
M  V30 16 H 3.71132 -0.15568 -1.67271 0
M  V30 17 H 2.30269 -2.19109 -0.200595 0
M  V30 18 H -0.0522193 -2.53148 0.455559 0
M  V30 19 H 1.55156 1.96762 -0.465134 0
M  V30 20 H -4.00708 -0.96524 0.0125586 0
M  V30 21 H -2.76742 -1.36541 -1.18166 0
M  V30 END ATOM
M  V30 BEGIN BOND
M  V30 1 1 1 2
M  V30 2 2 2 3
M  V30 3 1 3 4
M  V30 4 2 4 5
M  V30 5 1 5 6
M  V30 6 2 6 7
M  V30 7 1 6 8
M  V30 8 1 8 9
M  V30 9 1 8 10
M  V30 10 1 8 11
M  V30 11 1 5 12
M  V30 12 2 12 13
M  V30 13 1 12 14
M  V30 14 1 7 2
M  V30 15 1 1 15
M  V30 16 1 1 16
M  V30 17 1 3 17
M  V30 18 1 4 18
M  V30 19 1 7 19
M  V30 20 1 14 20
M  V30 21 1 14 21
M  V30 END BOND
M  V30 END CTAB
M  END
