
     RDKit          3D

  0  0  0  0  0  0  0  0  0  0999 V3000
M  V30 BEGIN CTAB
M  V30 COUNTS 22 23 0 0 0
M  V30 BEGIN ATOM
M  V30 1 N 4.05373 -1.34168 0.625922 0
M  V30 2 C 2.87094 -0.630833 0.29105 0
M  V30 3 N 1.59239 -1.02404 0.419437 0
M  V30 4 N 0.737024 -0.107623 0.00742283 0
M  V30 5 C 1.50593 0.916594 -0.402331 0
M  V30 6 N 2.80355 0.623781 -0.240559 0
M  V30 7 N 1.05551 2.15425 -0.938053 0
M  V30 8 C -0.683873 -0.166278 -0.00959025 0
M  V30 9 C -1.45766 -0.130783 -1.1458 0
M  V30 10 C -2.83214 -0.189516 -1.12882 0
M  V30 11 C -3.49719 -0.289633 0.0775822 0
M  V30 12 C -2.75214 -0.327614 1.23513 0
M  V30 13 C -1.37446 -0.266582 1.18199 0
M  V30 14 Cl -0.453024 -0.317062 2.67234 0
M  V30 15 H 4.90456 -1.23665 0.0537272 0
M  V30 16 H 4.03344 -1.95952 1.45127 0
M  V30 17 H 1.03835 2.31202 -1.97341 0
M  V30 18 H 0.730807 2.9394 -0.342099 0
M  V30 19 H -0.967248 -0.0531955 -2.09834 0
M  V30 20 H -3.43859 -0.16149 -2.02268 0
M  V30 21 H -4.58724 -0.337692 0.115763 0
M  V30 22 H -3.28266 -0.405851 2.17005 0
M  V30 END ATOM
M  V30 BEGIN BOND
M  V30 1 1 1 2
M  V30 2 2 2 3
M  V30 3 1 3 4
M  V30 4 1 4 5
M  V30 5 2 5 6
M  V30 6 1 5 7
M  V30 7 1 4 8
M  V30 8 2 8 9
M  V30 9 1 9 10
M  V30 10 2 10 11
M  V30 11 1 11 12
M  V30 12 2 12 13
M  V30 13 1 13 14
M  V30 14 1 6 2
M  V30 15 1 13 8
M  V30 16 1 1 15
M  V30 17 1 1 16
M  V30 18 1 7 17
M  V30 19 1 7 18
M  V30 20 1 9 19
M  V30 21 1 10 20
M  V30 22 1 11 21
M  V30 23 1 12 22
M  V30 END BOND
M  V30 END CTAB
M  END
