
     RDKit          3D

  0  0  0  0  0  0  0  0  0  0999 V3000
M  V30 BEGIN CTAB
M  V30 COUNTS 26 26 0 0 0
M  V30 BEGIN ATOM
M  V30 1 C 4.16777 0.871302 -0.733186 0
M  V30 2 O 3.20785 0.532142 0.2579 0
M  V30 3 C 1.88314 0.247143 -0.0355289 0
M  V30 4 O 1.55124 0.301053 -1.24775 0
M  V30 5 C 0.875577 -0.103504 0.960124 0
M  V30 6 C -0.461527 -0.365704 0.390876 0
M  V30 7 C -0.793027 -1.52265 -0.265439 0
M  V30 8 N 0.20976 -2.49915 -0.401736 0
M  V30 9 C -2.07156 -1.67785 -0.760779 0
M  V30 10 C -3.02029 -0.68281 -0.603795 0
M  V30 11 C -2.72314 0.494435 0.0502998 0
M  V30 12 C -1.4183 0.61666 0.538779 0
M  V30 13 N -1.14759 1.84095 1.20313 0
M  V30 14 C -3.70336 1.52755 0.213564 0
M  V30 15 N -4.4898 2.37153 0.333764 0
M  V30 16 H 3.79481 1.64925 -1.42871 0
M  V30 17 H 5.0269 1.31266 -0.179612 0
M  V30 18 H 4.51237 -0.0390596 -1.2653 0
M  V30 19 H 1.13632 -1.02255 1.56158 0
M  V30 20 H 0.769025 0.69861 1.71994 0
M  V30 21 H 0.473602 -3.11223 0.38905 0
M  V30 22 H 0.695912 -2.61173 -1.30566 0
M  V30 23 H -2.32881 -2.60591 -1.28436 0
M  V30 24 H -4.0465 -0.784473 -0.990016 0
M  V30 25 H -0.955901 1.84356 2.21376 0
M  V30 26 H -1.14448 2.72077 0.669121 0
M  V30 END ATOM
M  V30 BEGIN BOND
M  V30 1 1 1 2
M  V30 2 1 2 3
M  V30 3 2 3 4
M  V30 4 1 3 5
M  V30 5 1 5 6
M  V30 6 2 6 7
M  V30 7 1 7 8
M  V30 8 1 7 9
M  V30 9 2 9 10
M  V30 10 1 10 11
M  V30 11 2 11 12
M  V30 12 1 12 13
M  V30 13 1 11 14
M  V30 14 3 14 15
M  V30 15 1 12 6
M  V30 16 1 1 16
M  V30 17 1 1 17
M  V30 18 1 1 18
M  V30 19 1 5 19
M  V30 20 1 5 20
M  V30 21 1 8 21
M  V30 22 1 8 22
M  V30 23 1 9 23
M  V30 24 1 10 24
M  V30 25 1 13 25
M  V30 26 1 13 26
M  V30 END BOND
M  V30 END CTAB
M  END
