
     RDKit          3D

  0  0  0  0  0  0  0  0  0  0999 V3000
M  V30 BEGIN CTAB
M  V30 COUNTS 27 26 0 0 0
M  V30 BEGIN ATOM
M  V30 1 N 3.72703 -0.0529518 0.42557 0
M  V30 2 C 2.32449 0.300124 0.528925 0
M  V30 3 C 1.56698 -0.149599 -0.718445 0
M  V30 4 C 0.12081 0.205275 -0.627019 0
M  V30 5 C -0.615029 -0.396581 0.513586 0
M  V30 6 C -2.05361 0.0655766 0.460061 0
M  V30 7 N -2.71002 -0.324716 -0.76233 0
M  V30 8 C -2.11826 1.53361 0.684873 0
M  V30 9 O -2.72583 2.42475 -0.159378 0
M  V30 10 O -1.57352 1.98007 1.72721 0
M  V30 11 C -0.572595 -1.85441 0.587601 0
M  V30 12 O 0.582014 -2.60994 0.716987 0
M  V30 13 O -1.64986 -2.50005 0.532236 0
M  V30 14 H 4.32475 0.72628 0.746858 0
M  V30 15 H 3.97064 -0.302126 -0.548264 0
M  V30 16 H 2.2336 1.40324 0.664231 0
M  V30 17 H 1.92421 -0.15709 1.45112 0
M  V30 18 H 1.78922 -1.2003 -0.896754 0
M  V30 19 H 2.02116 0.425085 -1.5756 0
M  V30 20 H 0.0777177 1.32588 -0.48563 0
M  V30 21 H -0.376271 0.0311799 -1.60232 0
M  V30 22 H -0.190886 0.00658308 1.45851 0
M  V30 23 H -2.58031 -0.461118 1.29251 0
M  V30 24 H -3.73532 -0.167024 -0.618521 0
M  V30 25 H -2.43439 0.23294 -1.5872 0
M  V30 26 H -2.20274 2.76552 -0.975929 0
M  V30 27 H 0.876038 -3.25022 -0.00465507 0
M  V30 END ATOM
M  V30 BEGIN BOND
M  V30 1 1 1 2
M  V30 2 1 2 3
M  V30 3 1 3 4
M  V30 4 1 4 5
M  V30 5 1 5 6
M  V30 6 1 6 7
M  V30 7 1 6 8
M  V30 8 1 8 9
M  V30 9 2 8 10
M  V30 10 1 5 11
M  V30 11 1 11 12
M  V30 12 2 11 13
M  V30 13 1 1 14
M  V30 14 1 1 15
M  V30 15 1 2 16
M  V30 16 1 2 17
M  V30 17 1 3 18
M  V30 18 1 3 19
M  V30 19 1 4 20
M  V30 20 1 4 21
M  V30 21 1 5 22
M  V30 22 1 6 23
M  V30 23 1 7 24
M  V30 24 1 7 25
M  V30 25 1 9 26
M  V30 26 1 12 27
M  V30 END BOND
M  V30 END CTAB
M  END
