
     RDKit          3D

  0  0  0  0  0  0  0  0  0  0999 V3000
M  V30 BEGIN CTAB
M  V30 COUNTS 67 66 0 0 0
M  V30 BEGIN ATOM
M  V30 1 C 0.999437 2.93138 1.8994 0
M  V30 2 O 0.576507 1.67211 2.33014 0
M  V30 3 C 0.229587 0.835651 1.23285 0
M  V30 4 N -1.05597 0.226329 1.36254 0
M  V30 5 C -1.9482 0.340956 0.250498 0
M  V30 6 O -1.54684 0.957007 -0.788832 0
M  V30 7 C -3.33053 -0.205939 0.209946 0
M  V30 8 C -3.71436 -0.274562 -1.20659 0
M  V30 9 C -5.10932 -0.636384 -1.48793 0
M  V30 10 C -6.17993 0.291627 -1.18847 0
M  V30 11 C -6.52756 0.844449 0.102915 0
M  V30 12 C -7.00028 -0.0763573 1.17482 0
M  V30 13 N -8.20064 -0.803148 0.874258 0
M  V30 14 C -9.49142 -0.264383 0.748254 0
M  V30 15 N -9.68377 1.1196 0.631758 0
M  V30 16 N -10.5215 -1.08949 0.746677 0
M  V30 17 C 1.35351 -0.208104 1.23155 0
M  V30 18 O 1.23711 -1.10505 2.03991 0
M  V30 19 N 2.3626 0.0313376 0.304948 0
M  V30 20 C 3.34063 0.238515 -0.571153 0
M  V30 21 C 3.76139 -0.875467 -1.53251 0
M  V30 22 C 4.16193 -2.15815 -0.947768 0
M  V30 23 C 5.23655 -2.34453 0.00561667 0
M  V30 24 N 6.55942 -1.98972 -0.203262 0
M  V30 25 C 6.91095 -0.627397 -0.271647 0
M  V30 26 C 8.43706 -0.404571 -0.199132 0
M  V30 27 C 8.61912 1.08846 -0.308295 0
M  V30 28 N 10.0056 1.496 -0.240059 0
M  V30 29 H 1.77075 2.77398 1.12298 0
M  V30 30 H 1.56128 3.42731 2.76321 0
M  V30 31 H 0.173003 3.54491 1.59736 0
M  V30 32 H 0.376519 1.42744 0.330242 0
M  V30 33 H -1.31852 -0.287472 2.23059 0
M  V30 34 H -3.28319 -1.28531 0.581896 0
M  V30 35 H -3.98027 0.3032 0.921757 0
M  V30 36 H -3.41184 0.682313 -1.73979 0
M  V30 37 H -3.03436 -1.04621 -1.68162 0
M  V30 38 H -5.16521 -0.841345 -2.62885 0
M  V30 39 H -5.28879 -1.68388 -1.0875 0
M  V30 40 H -7.15341 -0.0724865 -1.7227 0
M  V30 41 H -5.97222 1.2266 -1.868 0
M  V30 42 H -5.78264 1.5634 0.531604 0
M  V30 43 H -7.41131 1.56158 -0.0892527 0
M  V30 44 H -6.23881 -0.737117 1.59098 0
M  V30 45 H -7.28687 0.613559 2.04776 0
M  V30 46 H -8.0521 -1.88091 0.741066 0
M  V30 47 H -9.60564 1.79947 1.41438 0
M  V30 48 H -9.92599 1.57369 -0.300091 0
M  V30 49 H -10.3674 -2.12945 0.837315 0
M  V30 50 H 3.11294 -0.934222 0.913083 0
M  V30 51 H 4.2719 0.822939 -0.31943 0
M  V30 52 H 2.87769 1.0671 -1.3404 0
M  V30 53 H 4.48102 -0.464991 -2.28305 0
M  V30 54 H 2.80814 -1.066 -2.13135 0
M  V30 55 H 4.35649 -2.86317 -1.8301 0
M  V30 56 H 3.21061 -2.61268 -0.513453 0
M  V30 57 H 5.30163 -3.53169 0.120814 0
M  V30 58 H 4.97643 -2.12731 1.10023 0
M  V30 59 H 7.15216 -2.65565 -0.712662 0
M  V30 60 H 6.5281 -0.0733049 0.618212 0
M  V30 61 H 6.51903 -0.0563829 -1.16509 0
M  V30 62 H 8.94647 -0.993184 -0.954684 0
M  V30 63 H 8.70002 -0.722744 0.852035 0
M  V30 64 H 8.17808 1.36424 -1.30827 0
M  V30 65 H 7.98891 1.56022 0.450023 0
M  V30 66 H 10.501 1.18587 -1.06584 0
M  V30 67 H 10.0054 2.55752 -0.188455 0
M  V30 END ATOM
M  V30 BEGIN BOND
M  V30 1 1 1 2
M  V30 2 1 2 3
M  V30 3 1 3 4
M  V30 4 1 4 5
M  V30 5 2 5 6
M  V30 6 1 5 7
M  V30 7 1 7 8
M  V30 8 1 8 9
M  V30 9 1 9 10
M  V30 10 1 10 11
M  V30 11 1 11 12
M  V30 12 1 12 13
M  V30 13 1 13 14
M  V30 14 1 14 15
M  V30 15 2 14 16 CFG=2
M  V30 16 1 3 17
M  V30 17 2 17 18
M  V30 18 1 17 19
M  V30 19 1 19 20
M  V30 20 1 20 21
M  V30 21 1 21 22
M  V30 22 1 22 23
M  V30 23 1 23 24
M  V30 24 1 24 25
M  V30 25 1 25 26
M  V30 26 1 26 27
M  V30 27 1 27 28
M  V30 28 1 1 29
M  V30 29 1 1 30
M  V30 30 1 1 31
M  V30 31 1 3 32
M  V30 32 1 4 33
M  V30 33 1 7 34
M  V30 34 1 7 35
M  V30 35 1 8 36
M  V30 36 1 8 37
M  V30 37 1 9 38
M  V30 38 1 9 39
M  V30 39 1 10 40
M  V30 40 1 10 41
M  V30 41 1 11 42
M  V30 42 1 11 43
M  V30 43 1 12 44
M  V30 44 1 12 45
M  V30 45 1 13 46
M  V30 46 1 15 47
M  V30 47 1 15 48
M  V30 48 1 16 49
M  V30 49 1 19 50
M  V30 50 1 20 51
M  V30 51 1 20 52
M  V30 52 1 21 53
M  V30 53 1 21 54
M  V30 54 1 22 55
M  V30 55 1 22 56
M  V30 56 1 23 57
M  V30 57 1 23 58
M  V30 58 1 24 59
M  V30 59 1 25 60
M  V30 60 1 25 61
M  V30 61 1 26 62
M  V30 62 1 26 63
M  V30 63 1 27 64
M  V30 64 1 27 65
M  V30 65 1 28 66
M  V30 66 1 28 67
M  V30 END BOND
M  V30 END CTAB
M  END
