
     RDKit          3D

  0  0  0  0  0  0  0  0  0  0999 V3000
M  V30 BEGIN CTAB
M  V30 COUNTS 31 33 0 0 0
M  V30 BEGIN ATOM
M  V30 1 N -6.72629 -0.681896 0.414655 0
M  V30 2 C -5.63981 -0.374744 0.171652 0
M  V30 3 C -4.25918 -0.00625025 -0.118821 0
M  V30 4 C -3.21979 -0.666204 0.469602 0
M  V30 5 C -1.88125 -0.311133 0.189825 0
M  V30 6 C -1.73327 0.717008 -0.692599 0
M  V30 7 N -2.78885 1.37648 -1.28091 0
M  V30 8 C -4.06655 1.0311 -1.0083 0
M  V30 9 N -5.16483 1.67443 -1.58355 0
M  V30 10 S -0.037463 0.881649 -0.801835 0
M  V30 11 C 0.433893 -0.353957 0.271058 0
M  V30 12 C -0.752096 -0.872394 0.694756 0
M  V30 13 N -0.76286 -1.98421 1.65266 0
M  V30 14 C 1.79345 -0.787139 0.650011 0
M  V30 15 O 1.8769 -1.7585 1.44673 0
M  V30 16 C 2.98153 -0.1635 0.158146 0
M  V30 17 C 4.11783 -0.980604 0.0489704 0
M  V30 18 C 5.32981 -0.509123 -0.395837 0
M  V30 19 C 5.45455 0.812833 -0.752957 0
M  V30 20 C 4.37889 1.65727 -0.666687 0
M  V30 21 C 3.16488 1.13547 -0.208781 0
M  V30 22 F 6.64237 1.29588 -1.19429 0
M  V30 23 H -3.46498 -1.47191 1.15862 0
M  V30 24 H -5.12079 2.67338 -1.84781 0
M  V30 25 H -6.04373 1.15644 -1.75431 0
M  V30 26 H -1.12221 -2.91721 1.35504 0
M  V30 27 H -0.425243 -1.8694 2.61178 0
M  V30 28 H 4.06112 -2.03465 0.322088 0
M  V30 29 H 6.18799 -1.18392 -0.464204 0
M  V30 30 H 4.45861 2.70367 -0.94417 0
M  V30 31 H 2.32737 1.81116 -0.134054 0
M  V30 END ATOM
M  V30 BEGIN BOND
M  V30 1 3 1 2
M  V30 2 1 2 3
M  V30 3 2 3 4
M  V30 4 1 4 5
M  V30 5 2 5 6
M  V30 6 1 6 7
M  V30 7 2 7 8
M  V30 8 1 8 9
M  V30 9 1 6 10
M  V30 10 1 10 11
M  V30 11 2 11 12
M  V30 12 1 12 13
M  V30 13 1 11 14
M  V30 14 2 14 15
M  V30 15 1 14 16
M  V30 16 2 16 17
M  V30 17 1 17 18
M  V30 18 2 18 19
M  V30 19 1 19 20
M  V30 20 2 20 21
M  V30 21 1 19 22
M  V30 22 1 8 3
M  V30 23 1 21 16
M  V30 24 1 12 5
M  V30 25 1 4 23
M  V30 26 1 9 24
M  V30 27 1 9 25
M  V30 28 1 13 26
M  V30 29 1 13 27
M  V30 30 1 17 28
M  V30 31 1 18 29
M  V30 32 1 20 30
M  V30 33 1 21 31
M  V30 END BOND
M  V30 END CTAB
M  END
