
     RDKit          3D

  0  0  0  0  0  0  0  0  0  0999 V3000
M  V30 BEGIN CTAB
M  V30 COUNTS 26 27 0 0 0
M  V30 BEGIN ATOM
M  V30 1 N 1.14618 -0.652734 -2.28375 0
M  V30 2 C 1.80678 -0.0691969 -1.18408 0
M  V30 3 N 3.1573 0.0925132 -1.34257 0
M  V30 4 C 3.87262 0.637311 -0.344507 0
M  V30 5 C 3.27289 1.03059 0.821694 0
M  V30 6 C 1.9191 0.865863 0.973966 0
M  V30 7 C 1.1469 0.301864 -0.0463949 0
M  V30 8 C -0.283459 0.16678 0.177933 0
M  V30 9 C -1.18922 -0.283496 -0.643862 0
M  V30 10 C -2.55364 -0.241262 0.0201493 0
M  V30 11 C -2.13004 -0.448544 1.45584 0
M  V30 12 C -0.955425 0.542919 1.48562 0
M  V30 13 N -3.41305 -1.27076 -0.477468 0
M  V30 14 H 0.991758 -1.67946 -2.34266 0
M  V30 15 H 0.788601 -0.0761621 -3.0776 0
M  V30 16 H 4.9559 0.780504 -0.439662 0
M  V30 17 H 3.82256 1.47261 1.64389 0
M  V30 18 H 1.42491 1.18076 1.90363 0
M  V30 19 H -1.09926 -0.647296 -1.64557 0
M  V30 20 H -2.93707 0.790371 -0.152981 0
M  V30 21 H -1.72322 -1.48413 1.5177 0
M  V30 22 H -2.89178 -0.21379 2.189 0
M  V30 23 H -0.328211 0.351022 2.35551 0
M  V30 24 H -1.36984 1.56536 1.41234 0
M  V30 25 H -3.03525 -1.76679 -1.30933 0
M  V30 26 H -4.39605 -0.944851 -0.666819 0
M  V30 END ATOM
M  V30 BEGIN BOND
M  V30 1 1 1 2
M  V30 2 2 2 3
M  V30 3 1 3 4
M  V30 4 2 4 5
M  V30 5 1 5 6
M  V30 6 2 6 7
M  V30 7 1 7 8
M  V30 8 2 8 9
M  V30 9 1 9 10
M  V30 10 1 10 11
M  V30 11 1 11 12
M  V30 12 1 10 13
M  V30 13 1 7 2
M  V30 14 1 12 8
M  V30 15 1 1 14
M  V30 16 1 1 15
M  V30 17 1 4 16
M  V30 18 1 5 17
M  V30 19 1 6 18
M  V30 20 1 9 19
M  V30 21 1 10 20
M  V30 22 1 11 21
M  V30 23 1 11 22
M  V30 24 1 12 23
M  V30 25 1 12 24
M  V30 26 1 13 25
M  V30 27 1 13 26
M  V30 END BOND
M  V30 END CTAB
M  END
