
     RDKit          3D

  0  0  0  0  0  0  0  0  0  0999 V3000
M  V30 BEGIN CTAB
M  V30 COUNTS 42 43 0 0 0
M  V30 BEGIN ATOM
M  V30 1 N -1.50782 -1.77946 2.59626 0
M  V30 2 C -2.16553 -1.32393 1.76417 0
M  V30 3 C -3.00957 -0.751542 0.706874 0
M  V30 4 C -4.31123 -0.769842 0.836143 0
M  V30 5 N -4.95374 -1.31335 1.93749 0
M  V30 6 S -5.25601 -0.0145676 -0.482284 0
M  V30 7 C -4.13948 1.33645 -0.972593 0
M  V30 8 C -2.85435 1.09371 -0.920336 0
M  V30 9 C -2.33566 -0.193438 -0.494662 0
M  V30 10 C -0.866948 -0.224086 -0.338144 0
M  V30 11 C -0.138344 -1.05832 -1.13659 0
M  V30 12 C 1.25299 -1.15032 -1.05563 0
M  V30 13 C 1.8896 -0.364553 -0.133027 0
M  V30 14 C 1.12061 0.492367 0.68448 0
M  V30 15 C -0.24933 0.563124 0.583552 0
M  V30 16 O 1.7816 1.27348 1.60526 0
M  V30 17 C 1.06768 2.13513 2.43493 0
M  V30 18 O 3.25568 -0.38755 0.0185046 0
M  V30 19 C 4.16276 -1.1581 -0.688645 0
M  V30 20 C 5.08281 -0.220902 -1.46145 0
M  V30 21 C 5.00776 -2.04571 0.216226 0
M  V30 22 C -1.94111 2.16778 -1.30734 0
M  V30 23 N -1.23409 3.02857 -1.61978 0
M  V30 24 N -4.74749 2.53246 -1.36813 0
M  V30 25 H -5.83666 -1.89543 1.84269 0
M  V30 26 H -4.64584 -1.20966 2.93937 0
M  V30 27 H -2.59363 -0.932916 -1.31851 0
M  V30 28 H -0.619592 -1.70437 -1.8897 0
M  V30 29 H 1.77402 -1.84531 -1.73192 0
M  V30 30 H -0.797321 1.2467 1.24413 0
M  V30 31 H 0.433887 1.51089 3.12175 0
M  V30 32 H 0.437624 2.78911 1.78372 0
M  V30 33 H 1.71433 2.81203 3.02343 0
M  V30 34 H 3.70322 -1.80561 -1.43998 0
M  V30 35 H 5.47884 -0.75374 -2.35052 0
M  V30 36 H 5.92211 0.13657 -0.805284 0
M  V30 37 H 4.483 0.632956 -1.81833 0
M  V30 38 H 4.86194 -1.77015 1.28966 0
M  V30 39 H 6.06648 -1.98283 -0.0738001 0
M  V30 40 H 4.68462 -3.11066 0.140034 0
M  V30 41 H -5.61967 2.92259 -0.908457 0
M  V30 42 H -4.35814 3.09243 -2.14216 0
M  V30 END ATOM
M  V30 BEGIN BOND
M  V30 1 3 1 2
M  V30 2 1 2 3
M  V30 3 2 3 4
M  V30 4 1 4 5
M  V30 5 1 4 6
M  V30 6 1 6 7
M  V30 7 2 7 8
M  V30 8 1 8 9
M  V30 9 1 9 10
M  V30 10 2 10 11
M  V30 11 1 11 12
M  V30 12 2 12 13
M  V30 13 1 13 14
M  V30 14 2 14 15
M  V30 15 1 14 16
M  V30 16 1 16 17
M  V30 17 1 13 18
M  V30 18 1 18 19
M  V30 19 1 19 20
M  V30 20 1 19 21
M  V30 21 1 8 22
M  V30 22 3 22 23
M  V30 23 1 7 24
M  V30 24 1 9 3
M  V30 25 1 15 10
M  V30 26 1 5 25
M  V30 27 1 5 26
M  V30 28 1 9 27
M  V30 29 1 11 28
M  V30 30 1 12 29
M  V30 31 1 15 30
M  V30 32 1 17 31
M  V30 33 1 17 32
M  V30 34 1 17 33
M  V30 35 1 19 34
M  V30 36 1 20 35
M  V30 37 1 20 36
M  V30 38 1 20 37
M  V30 39 1 21 38
M  V30 40 1 21 39
M  V30 41 1 21 40
M  V30 42 1 24 41
M  V30 43 1 24 42
M  V30 END BOND
M  V30 END CTAB
M  END
