
     RDKit          3D

  0  0  0  0  0  0  0  0  0  0999 V3000
M  V30 BEGIN CTAB
M  V30 COUNTS 31 32 0 0 0
M  V30 BEGIN ATOM
M  V30 1 N 4.89705 -1.21377 -0.616315 0
M  V30 2 N 3.58102 -0.910341 -0.956951 0
M  V30 3 C 2.631 -0.654699 0.0445497 0
M  V30 4 O 2.92955 -0.689662 1.27635 0
M  V30 5 C 1.2196 -0.328903 -0.308272 0
M  V30 6 C 0.622623 0.87803 0.436951 0
M  V30 7 C 0.202084 -0.521922 0.710785 0
M  V30 8 C -1.15427 -1.01704 0.439386 0
M  V30 9 C -1.64874 -1.35254 -0.80539 0
M  V30 10 C -2.93188 -1.80182 -1.00227 0
M  V30 11 C -3.77951 -1.93017 0.0818422 0
M  V30 12 C -3.31571 -1.60374 1.33545 0
M  V30 13 C -2.02473 -1.15601 1.50192 0
M  V30 14 C -0.143962 1.85731 -0.309247 0
M  V30 15 O -0.975878 1.57793 -1.21076 0
M  V30 16 N 0.0202419 3.24952 -0.0398895 0
M  V30 17 N -0.674889 4.2606 -0.708084 0
M  V30 18 H 4.99782 -2.20144 -0.249816 0
M  V30 19 H 5.23824 -0.567622 0.14618 0
M  V30 20 H 3.32372 -0.878384 -1.95633 0
M  V30 21 H 1.00596 -0.309707 -1.39617 0
M  V30 22 H 1.32781 1.35934 1.19173 0
M  V30 23 H 0.557396 -0.869983 1.73512 0
M  V30 24 H -0.986791 -1.26092 -1.67936 0
M  V30 25 H -3.31021 -2.06453 -1.99909 0
M  V30 26 H -4.78643 -2.27494 -0.0165734 0
M  V30 27 H -3.9978 -1.70943 2.19115 0
M  V30 28 H -1.71411 -0.911419 2.52885 0
M  V30 29 H 0.69501 3.53396 0.695267 0
M  V30 30 H -1.65954 4.37009 -0.35674 0
M  V30 31 H -0.144687 5.14221 -0.704258 0
M  V30 END ATOM
M  V30 BEGIN BOND
M  V30 1 1 1 2
M  V30 2 1 2 3
M  V30 3 2 3 4
M  V30 4 1 3 5
M  V30 5 1 5 6
M  V30 6 1 6 7
M  V30 7 1 7 8
M  V30 8 2 8 9
M  V30 9 1 9 10
M  V30 10 2 10 11
M  V30 11 1 11 12
M  V30 12 2 12 13
M  V30 13 1 6 14
M  V30 14 2 14 15
M  V30 15 1 14 16
M  V30 16 1 16 17
M  V30 17 1 7 5
M  V30 18 1 13 8
M  V30 19 1 1 18
M  V30 20 1 1 19
M  V30 21 1 2 20
M  V30 22 1 5 21
M  V30 23 1 6 22
M  V30 24 1 7 23
M  V30 25 1 9 24
M  V30 26 1 10 25
M  V30 27 1 11 26
M  V30 28 1 12 27
M  V30 29 1 13 28
M  V30 30 1 16 29
M  V30 31 1 17 30
M  V30 32 1 17 31
M  V30 END BOND
M  V30 END CTAB
M  END
