
     RDKit          3D

  0  0  0  0  0  0  0  0  0  0999 V3000
M  V30 BEGIN CTAB
M  V30 COUNTS 37 39 0 0 0
M  V30 BEGIN ATOM
M  V30 1 C -4.23781 3.04914 0.609509 0
M  V30 2 O -3.42423 1.9361 0.377359 0
M  V30 3 C -3.9514 0.670952 0.096576 0
M  V30 4 C -5.30756 0.492716 0.0420758 0
M  V30 5 C -5.8723 -0.732005 -0.230372 0
M  V30 6 C -5.00882 -1.77395 -0.446489 0
M  V30 7 C -3.62405 -1.59626 -0.391772 0
M  V30 8 C -3.05414 -0.392053 -0.123719 0
M  V30 9 N -1.67786 -0.109195 -0.0462588 0
M  V30 10 C -0.662285 -1.05971 -0.240813 0
M  V30 11 O -0.764848 -2.26481 -0.503681 0
M  V30 12 C 0.742434 -0.581799 -0.12066 0
M  V30 13 S 1.22921 1.01181 0.231088 0
M  V30 14 C 2.92194 0.792379 0.203189 0
M  V30 15 C 3.05055 -0.537401 -0.0840835 0
M  V30 16 C 1.92049 -1.25119 -0.252275 0
M  V30 17 N 1.87931 -2.67105 -0.561081 0
M  V30 18 C 4.38179 -0.990274 -0.166889 0
M  V30 19 C 5.39775 -0.117175 0.0345736 0
M  V30 20 C 5.25327 1.22208 0.323713 0
M  V30 21 N 3.9668 1.64128 0.399728 0
M  V30 22 N 6.34207 2.10849 0.528913 0
M  V30 23 C 6.76757 -0.587224 -0.0515067 0
M  V30 24 N 7.85773 -0.979248 -0.130972 0
M  V30 25 H -3.62624 3.80677 1.1411 0
M  V30 26 H -5.08789 2.80293 1.25515 0
M  V30 27 H -4.57261 3.45636 -0.375776 0
M  V30 28 H -6.01268 1.31363 0.212053 0
M  V30 29 H -6.92625 -0.9089 -0.281059 0
M  V30 30 H -5.38442 -2.76432 -0.665855 0
M  V30 31 H -2.98346 -2.45241 -0.570159 0
M  V30 32 H -1.41127 0.903218 0.176666 0
M  V30 33 H 1.51254 -3.01146 -1.44205 0
M  V30 34 H 2.24563 -3.30475 0.17089 0
M  V30 35 H 4.6283 -2.01423 -0.38634 0
M  V30 36 H 6.48925 2.48501 1.48639 0
M  V30 37 H 7.00347 2.40656 -0.217175 0
M  V30 END ATOM
M  V30 BEGIN BOND
M  V30 1 1 1 2
M  V30 2 1 2 3
M  V30 3 2 3 4
M  V30 4 1 4 5
M  V30 5 2 5 6
M  V30 6 1 6 7
M  V30 7 2 7 8
M  V30 8 1 8 9
M  V30 9 1 9 10
M  V30 10 2 10 11
M  V30 11 1 10 12
M  V30 12 1 12 13
M  V30 13 1 13 14
M  V30 14 2 14 15
M  V30 15 1 15 16
M  V30 16 1 16 17
M  V30 17 1 15 18
M  V30 18 2 18 19
M  V30 19 1 19 20
M  V30 20 2 20 21
M  V30 21 1 20 22
M  V30 22 1 19 23
M  V30 23 3 23 24
M  V30 24 1 8 3
M  V30 25 2 16 12
M  V30 26 1 21 14
M  V30 27 1 1 25
M  V30 28 1 1 26
M  V30 29 1 1 27
M  V30 30 1 4 28
M  V30 31 1 5 29
M  V30 32 1 6 30
M  V30 33 1 7 31
M  V30 34 1 9 32
M  V30 35 1 17 33
M  V30 36 1 17 34
M  V30 37 1 18 35
M  V30 38 1 22 36
M  V30 39 1 22 37
M  V30 END BOND
M  V30 END CTAB
M  END
