
     RDKit          3D

  0  0  0  0  0  0  0  0  0  0999 V3000
M  V30 BEGIN CTAB
M  V30 COUNTS 84 88 0 0 0
M  V30 BEGIN ATOM
M  V30 1 N 9.43566 -0.622582 -3.76825 0
M  V30 2 C 8.20915 -1.02269 -4.3515 0
M  V30 3 N 7.89114 -0.559314 -5.50207 0
M  V30 4 N 7.37049 -1.91743 -3.65708 0
M  V30 5 C 6.18845 -1.54152 -2.94547 0
M  V30 6 C 6.47124 -0.714579 -1.72588 0
M  V30 7 N 5.23703 -0.380291 -1.05449 0
M  V30 8 C 5.17069 0.3997 0.12474 0
M  V30 9 O 6.28227 0.817318 0.590372 0
M  V30 10 C 3.9307 0.74116 0.815648 0
M  V30 11 C 4.19656 1.63981 1.99337 0
M  V30 12 C 2.99306 1.54936 2.9224 0
M  V30 13 N 1.754 1.36471 2.13069 0
M  V30 14 C 1.74164 1.8489 0.784654 0
M  V30 15 C 2.91888 1.43599 -0.0539338 0
M  V30 16 C 0.706326 0.704007 2.80951 0
M  V30 17 O 0.834311 0.309831 4.01077 0
M  V30 18 C -0.590616 0.42654 2.17314 0 CFG=2
M  V30 19 C -1.66868 1.40331 2.48385 0
M  V30 20 C -1.41521 2.78663 2.11605 0
M  V30 21 C -0.819557 3.6028 3.05373 0
M  V30 22 C -0.525039 4.92042 2.84499 0
M  V30 23 C -0.845719 5.45932 1.62241 0
M  V30 24 C -1.45353 4.68989 0.62025 0
M  V30 25 C -1.7228 3.37018 0.896055 0
M  V30 26 C -1.7675 5.31669 -0.663052 0
M  V30 27 N -1.44615 6.68845 -0.841717 0
M  V30 28 N -2.30981 4.6676 -1.59637 0
M  V30 29 N -1.02528 -0.911616 2.59986 0
M  V30 30 S -1.1251 -2.06143 1.36188 0
M  V30 31 O -0.56312 -1.43628 0.0702012 0
M  V30 32 O -0.466913 -3.36256 1.63449 0
M  V30 33 C -2.82078 -2.36574 1.0073 0
M  V30 34 C -3.21642 -2.96642 -0.187447 0
M  V30 35 C -4.54787 -3.20866 -0.473351 0
M  V30 36 C -5.54009 -2.86275 0.41476 0
M  V30 37 C -5.15528 -2.26581 1.59952 0
M  V30 38 C -3.82633 -2.02424 1.88689 0
M  V30 39 C -6.96043 -3.12803 0.134709 0
M  V30 40 O -7.8686 -2.81174 0.943669 0
M  V30 41 C -7.33109 -3.7758 -1.11506 0
M  V30 42 C -6.36143 -4.14107 -2.03632 0
M  V30 43 C -6.7593 -4.75104 -3.19196 0
M  V30 44 C -8.11204 -4.99229 -3.4226 0
M  V30 45 C -9.09378 -4.63776 -2.52135 0
M  V30 46 C -8.66258 -4.0253 -1.36672 0
M  V30 47 C -4.95687 -3.85821 -1.72019 0
M  V30 48 O -4.08624 -4.20137 -2.57865 0
M  V30 49 H 10.0014 -1.23015 -3.13873 0
M  V30 50 H 9.7934 0.335143 -3.97882 0
M  V30 51 H 7.02541 -0.781451 -6.02002 0
M  V30 52 H 7.64543 -2.93758 -3.67044 0
M  V30 53 H 5.53924 -0.957181 -3.63343 0
M  V30 54 H 5.60983 -2.43954 -2.6303 0
M  V30 55 H 6.98725 0.20859 -2.08639 0
M  V30 56 H 7.11263 -1.27553 -1.0051 0
M  V30 57 H 4.34168 -0.730204 -1.4555 0
M  V30 58 H 3.48107 -0.217997 1.17304 0
M  V30 59 H 5.07554 1.33147 2.57856 0
M  V30 60 H 4.31133 2.6944 1.61111 0
M  V30 61 H 3.15925 0.646427 3.54588 0
M  V30 62 H 2.97203 2.46605 3.52037 0
M  V30 63 H 1.76043 2.98163 0.83511 0
M  V30 64 H 0.8231 1.62572 0.218387 0
M  V30 65 H 2.57855 0.680552 -0.805938 0
M  V30 66 H 3.37053 2.27284 -0.600801 0
M  V30 67 H -0.448483 0.358436 1.08727 0
M  V30 68 H -1.9726 1.38467 3.56435 0
M  V30 69 H -2.56073 1.08278 1.84789 0
M  V30 70 H -0.544208 3.21163 4.04831 0
M  V30 71 H -0.0468631 5.52232 3.63058 0
M  V30 72 H -0.614876 6.49245 1.45167 0
M  V30 73 H -2.18049 2.73024 0.175059 0
M  V30 74 H -2.126 7.45857 -0.70356 0
M  V30 75 H -0.479011 6.93426 -1.12554 0
M  V30 76 H -2.56367 3.67401 -1.52364 0
M  V30 77 H -0.353426 -1.23411 3.31842 0
M  V30 78 H -2.42856 -3.24184 -0.897454 0
M  V30 79 H -5.95771 -2.00043 2.28122 0
M  V30 80 H -3.54285 -1.55443 2.82377 0
M  V30 81 H -6.0357 -5.04391 -3.91782 0
M  V30 82 H -8.46206 -5.48041 -4.33674 0
M  V30 83 H -10.1513 -4.83757 -2.72678 0
M  V30 84 H -9.40703 -3.72591 -0.62451 0
M  V30 END ATOM
M  V30 BEGIN BOND
M  V30 1 1 1 2
M  V30 2 2 2 3 CFG=2
M  V30 3 1 2 4
M  V30 4 1 4 5
M  V30 5 1 5 6
M  V30 6 1 6 7
M  V30 7 1 7 8
M  V30 8 2 8 9
M  V30 9 1 8 10
M  V30 10 1 10 11
M  V30 11 1 11 12
M  V30 12 1 12 13
M  V30 13 1 13 14
M  V30 14 1 14 15
M  V30 15 1 13 16
M  V30 16 2 16 17
M  V30 17 1 16 18
M  V30 18 1 18 19
M  V30 19 1 19 20
M  V30 20 2 20 21
M  V30 21 1 21 22
M  V30 22 2 22 23
M  V30 23 1 23 24
M  V30 24 2 24 25
M  V30 25 1 24 26
M  V30 26 1 26 27
M  V30 27 2 26 28 CFG=2
M  V30 28 1 18 29
M  V30 29 1 29 30
M  V30 30 2 30 31
M  V30 31 2 30 32
M  V30 32 1 30 33
M  V30 33 2 33 34
M  V30 34 1 34 35
M  V30 35 2 35 36
M  V30 36 1 36 37
M  V30 37 2 37 38
M  V30 38 1 36 39
M  V30 39 2 39 40
M  V30 40 1 39 41
M  V30 41 2 41 42
M  V30 42 1 42 43
M  V30 43 2 43 44
M  V30 44 1 44 45
M  V30 45 2 45 46
M  V30 46 1 42 47
M  V30 47 2 47 48
M  V30 48 1 15 10
M  V30 49 1 25 20
M  V30 50 1 38 33
M  V30 51 1 46 41
M  V30 52 1 47 35
M  V30 53 1 1 49
M  V30 54 1 1 50
M  V30 55 1 3 51
M  V30 56 1 4 52
M  V30 57 1 5 53
M  V30 58 1 5 54
M  V30 59 1 6 55
M  V30 60 1 6 56
M  V30 61 1 7 57
M  V30 62 1 10 58
M  V30 63 1 11 59
M  V30 64 1 11 60
M  V30 65 1 12 61
M  V30 66 1 12 62
M  V30 67 1 14 63
M  V30 68 1 14 64
M  V30 69 1 15 65
M  V30 70 1 15 66
M  V30 71 1 18 67 CFG=3
M  V30 72 1 19 68
M  V30 73 1 19 69
M  V30 74 1 21 70
M  V30 75 1 22 71
M  V30 76 1 23 72
M  V30 77 1 25 73
M  V30 78 1 27 74
M  V30 79 1 27 75
M  V30 80 1 28 76
M  V30 81 1 29 77
M  V30 82 1 34 78
M  V30 83 1 37 79
M  V30 84 1 38 80
M  V30 85 1 43 81
M  V30 86 1 44 82
M  V30 87 1 45 83
M  V30 88 1 46 84
M  V30 END BOND
M  V30 END CTAB
M  END
