
     RDKit          3D

  0  0  0  0  0  0  0  0  0  0999 V3000
M  V30 BEGIN CTAB
M  V30 COUNTS 25 25 0 0 0
M  V30 BEGIN ATOM
M  V30 1 N -1.62273 -1.57462 0.406077 0
M  V30 2 C -2.44264 -0.422073 0.173405 0
M  V30 3 C -1.73321 0.733632 -0.470608 0
M  V30 4 S -0.356308 1.3809 0.454368 0
M  V30 5 C 1.03015 0.31079 0.604775 0
M  V30 6 N 1.08944 -0.55132 1.63007 0
M  V30 7 C 2.11033 -1.39421 1.82652 0
M  V30 8 C 3.17108 -1.40521 0.952589 0
M  V30 9 C 3.14651 -0.53196 -0.114997 0
M  V30 10 C 2.07845 0.325148 -0.290187 0
M  V30 11 N 2.08584 1.21653 -1.40167 0
M  V30 12 C -2.75101 1.85118 -0.652108 0
M  V30 13 H -2.1834 -2.217 1.02849 0
M  V30 14 H -1.38754 -2.07981 -0.491838 0
M  V30 15 H -2.91975 -0.1453 1.13267 0
M  V30 16 H -3.27094 -0.714553 -0.51314 0
M  V30 17 H -1.43934 0.416753 -1.49477 0
M  V30 18 H 2.12518 -2.0705 2.65788 0
M  V30 19 H 3.98426 -2.07986 1.1095 0
M  V30 20 H 3.98132 -0.535362 -0.804129 0
M  V30 21 H 2.60396 0.957474 -2.28647 0
M  V30 22 H 1.59794 2.12966 -1.39042 0
M  V30 23 H -2.1798 2.8066 -0.813355 0
M  V30 24 H -3.32925 1.98095 0.281351 0
M  V30 25 H -3.38853 1.61217 -1.534 0
M  V30 END ATOM
M  V30 BEGIN BOND
M  V30 1 1 1 2
M  V30 2 1 2 3
M  V30 3 1 3 4
M  V30 4 1 4 5
M  V30 5 2 5 6
M  V30 6 1 6 7
M  V30 7 2 7 8
M  V30 8 1 8 9
M  V30 9 2 9 10
M  V30 10 1 10 11
M  V30 11 1 3 12
M  V30 12 1 10 5
M  V30 13 1 1 13
M  V30 14 1 1 14
M  V30 15 1 2 15
M  V30 16 1 2 16
M  V30 17 1 3 17
M  V30 18 1 7 18
M  V30 19 1 8 19
M  V30 20 1 9 20
M  V30 21 1 11 21
M  V30 22 1 11 22
M  V30 23 1 12 23
M  V30 24 1 12 24
M  V30 25 1 12 25
M  V30 END BOND
M  V30 END CTAB
M  END
