
     RDKit          3D

  0  0  0  0  0  0  0  0  0  0999 V3000
M  V30 BEGIN CTAB
M  V30 COUNTS 40 41 0 0 0
M  V30 BEGIN ATOM
M  V30 1 S -0.386895 0.320302 -3.52879 0
M  V30 2 C -0.555576 0.158272 -1.81987 0
M  V30 3 N -1.89065 0.0781813 -1.44614 0
M  V30 4 C -2.5536 -0.0575529 -0.218172 0
M  V30 5 O -1.94715 -0.140861 0.859699 0
M  V30 6 C -4.03062 -0.109542 -0.153976 0
M  V30 7 C -4.77515 0.507093 -1.11689 0
M  V30 8 C -6.1705 0.468943 -1.09309 0
M  V30 9 C -6.82541 -0.194879 -0.0919819 0
M  V30 10 C -6.08281 -0.8211 0.886248 0
M  V30 11 C -4.68332 -0.77903 0.856235 0
M  V30 12 N -8.26691 -0.248998 -0.044889 0
M  V30 13 N 0.653968 0.139844 -1.12915 0
M  V30 14 C 1.00731 0.033352 0.236327 0
M  V30 15 C 2.53288 0.0616468 0.334501 0
M  V30 16 C 3.19236 -0.818175 1.16069 0
M  V30 17 C 4.57072 -0.798649 1.25536 0
M  V30 18 C 5.33906 0.0967873 0.53129 0
M  V30 19 C 4.65948 0.971078 -0.291665 0
M  V30 20 C 3.27964 0.958368 -0.392436 0
M  V30 21 S 7.08275 0.114127 0.65753 0
M  V30 22 O 7.63933 -1.25074 0.937403 0
M  V30 23 O 7.72709 0.608652 -0.606299 0
M  V30 24 N 7.59377 1.19739 1.92847 0
M  V30 25 H -2.57604 0.125313 -2.32848 0
M  V30 26 H -4.26409 1.04071 -1.90734 0
M  V30 27 H -6.71029 0.974667 -1.88158 0
M  V30 28 H -6.5968 -1.34474 1.67627 0
M  V30 29 H -4.12459 -1.27343 1.62788 0
M  V30 30 H -8.85667 -0.134797 -0.894472 0
M  V30 31 H -8.71013 -0.408209 0.878163 0
M  V30 32 H 1.52517 0.2278 -1.80029 0
M  V30 33 H 0.613812 0.82136 0.910717 0
M  V30 34 H 0.680081 -0.946571 0.637923 0
M  V30 35 H 2.576 -1.51112 1.71924 0
M  V30 36 H 5.08275 -1.48402 1.89882 0
M  V30 37 H 5.25844 1.66739 -0.854606 0
M  V30 38 H 2.76312 1.66447 -1.05405 0
M  V30 39 H 7.64684 2.17286 1.52224 0
M  V30 40 H 8.58265 0.928168 2.13917 0
M  V30 END ATOM
M  V30 BEGIN BOND
M  V30 1 2 1 2
M  V30 2 1 2 3
M  V30 3 1 3 4
M  V30 4 2 4 5
M  V30 5 1 4 6
M  V30 6 2 6 7
M  V30 7 1 7 8
M  V30 8 2 8 9
M  V30 9 1 9 10
M  V30 10 2 10 11
M  V30 11 1 9 12
M  V30 12 1 2 13
M  V30 13 1 13 14
M  V30 14 1 14 15
M  V30 15 2 15 16
M  V30 16 1 16 17
M  V30 17 2 17 18
M  V30 18 1 18 19
M  V30 19 2 19 20
M  V30 20 1 18 21
M  V30 21 2 21 22
M  V30 22 2 21 23
M  V30 23 1 21 24
M  V30 24 1 11 6
M  V30 25 1 20 15
M  V30 26 1 3 25
M  V30 27 1 7 26
M  V30 28 1 8 27
M  V30 29 1 10 28
M  V30 30 1 11 29
M  V30 31 1 12 30
M  V30 32 1 12 31
M  V30 33 1 13 32
M  V30 34 1 14 33
M  V30 35 1 14 34
M  V30 36 1 16 35
M  V30 37 1 17 36
M  V30 38 1 19 37
M  V30 39 1 20 38
M  V30 40 1 24 39
M  V30 41 1 24 40
M  V30 END BOND
M  V30 END CTAB
M  END
