
     RDKit          3D

  0  0  0  0  0  0  0  0  0  0999 V3000
M  V30 BEGIN CTAB
M  V30 COUNTS 26 28 0 0 0
M  V30 BEGIN ATOM
M  V30 1 N -4.87495 -0.515049 0.326862 0
M  V30 2 C -3.47313 -0.337151 0.240034 0
M  V30 3 C -2.90019 0.907617 0.108507 0
M  V30 4 C -1.53398 1.10091 0.0222699 0
M  V30 5 C -0.703143 0.00317355 0.0694157 0
M  V30 6 C -1.23736 -1.27346 0.201559 0
M  V30 7 C -2.60325 -1.41046 0.283166 0
M  V30 8 N -0.409691 -2.32967 0.245469 0
M  V30 9 N 0.897141 -2.17986 0.165864 0
M  V30 10 C 1.49002 -0.991331 0.0379193 0
M  V30 11 C 0.681148 0.136488 -0.0128316 0
M  V30 12 C 1.24384 1.37842 -0.143607 0
M  V30 13 C 2.64423 1.44122 -0.220912 0
M  V30 14 C 3.44812 0.332618 -0.171479 0
M  V30 15 N 4.87673 0.447792 -0.254574 0
M  V30 16 C 2.87296 -0.910392 -0.0399716 0
M  V30 17 H -5.28217 -0.9464 1.16797 0
M  V30 18 H -5.47922 -0.213271 -0.448976 0
M  V30 19 H -3.58023 1.76564 0.073232 0
M  V30 20 H -1.14577 2.10015 -0.0796128 0
M  V30 21 H -3.02933 -2.40297 0.386464 0
M  V30 22 H 0.685441 2.27927 -0.188646 0
M  V30 23 H 3.12532 2.39951 -0.324276 0
M  V30 24 H 5.27486 0.77671 -1.16659 0
M  V30 25 H 5.49029 0.214247 0.557217 0
M  V30 26 H 3.52229 -1.77373 -0.00267522 0
M  V30 END ATOM
M  V30 BEGIN BOND
M  V30 1 1 1 2
M  V30 2 2 2 3
M  V30 3 1 3 4
M  V30 4 2 4 5
M  V30 5 1 5 6
M  V30 6 2 6 7
M  V30 7 1 6 8
M  V30 8 2 8 9
M  V30 9 1 9 10
M  V30 10 2 10 11
M  V30 11 1 11 12
M  V30 12 2 12 13
M  V30 13 1 13 14
M  V30 14 1 14 15
M  V30 15 2 14 16
M  V30 16 1 7 2
M  V30 17 1 16 10
M  V30 18 1 11 5
M  V30 19 1 1 17
M  V30 20 1 1 18
M  V30 21 1 3 19
M  V30 22 1 4 20
M  V30 23 1 7 21
M  V30 24 1 12 22
M  V30 25 1 13 23
M  V30 26 1 15 24
M  V30 27 1 15 25
M  V30 28 1 16 26
M  V30 END BOND
M  V30 END CTAB
M  END
