
     RDKit          3D

  0  0  0  0  0  0  0  0  0  0999 V3000
M  V30 BEGIN CTAB
M  V30 COUNTS 28 28 0 0 0
M  V30 BEGIN ATOM
M  V30 1 C 0.944607 -1.83278 -1.14272 0
M  V30 2 C 1.17866 -0.803848 -0.105143 0
M  V30 3 C 0.343425 0.393066 -0.0260557 0
M  V30 4 C -1.08521 0.322824 0.125382 0
M  V30 5 C -1.87735 0.0247986 -0.989263 0
M  V30 6 C -3.25055 0.0953819 -0.903395 0
M  V30 7 C -3.8286 0.465796 0.306839 0
M  V30 8 N -3.0392 0.736065 1.33919 0
M  V30 9 C -1.72577 0.67768 1.29116 0
M  V30 10 N -0.900003 0.861255 2.43354 0
M  V30 11 O 0.538693 1.07393 -1.28621 0
M  V30 12 C 2.61843 -0.297351 -0.42983 0
M  V30 13 N 3.01739 0.756336 0.484127 0
M  V30 14 H 0.984863 -2.85954 -0.588055 0
M  V30 15 H 1.72727 -1.93929 -1.92507 0
M  V30 16 H -0.020292 -1.79581 -1.68477 0
M  V30 17 H 1.36027 -1.2662 0.929598 0
M  V30 18 H 0.748209 1.13688 0.69261 0
M  V30 19 H -1.46942 -0.228366 -1.96577 0
M  V30 20 H -3.90597 -0.138198 -1.71991 0
M  V30 21 H -4.92754 0.524818 0.379792 0
M  V30 22 H -0.783262 1.79065 2.84879 0
M  V30 23 H -0.390104 0.0351928 2.86141 0
M  V30 24 H 0.989824 1.94255 -1.17967 0
M  V30 25 H 2.67845 0.112708 -1.45084 0
M  V30 26 H 3.33882 -1.14588 -0.28271 0
M  V30 27 H 2.64933 0.653543 1.43649 0
M  V30 28 H 4.08502 0.703796 0.550473 0
M  V30 END ATOM
M  V30 BEGIN BOND
M  V30 1 1 1 2
M  V30 2 1 2 3
M  V30 3 1 3 4
M  V30 4 2 4 5
M  V30 5 1 5 6
M  V30 6 2 6 7
M  V30 7 1 7 8
M  V30 8 2 8 9
M  V30 9 1 9 10
M  V30 10 1 3 11
M  V30 11 1 2 12
M  V30 12 1 12 13
M  V30 13 1 9 4
M  V30 14 1 1 14
M  V30 15 1 1 15
M  V30 16 1 1 16
M  V30 17 1 2 17
M  V30 18 1 3 18
M  V30 19 1 5 19
M  V30 20 1 6 20
M  V30 21 1 7 21
M  V30 22 1 10 22
M  V30 23 1 10 23
M  V30 24 1 11 24
M  V30 25 1 12 25
M  V30 26 1 12 26
M  V30 27 1 13 27
M  V30 28 1 13 28
M  V30 END BOND
M  V30 END CTAB
M  END
