
     RDKit          3D

  0  0  0  0  0  0  0  0  0  0999 V3000
M  V30 BEGIN CTAB
M  V30 COUNTS 47 49 0 0 0
M  V30 BEGIN ATOM
M  V30 1 C -3.11976 -1.32683 1.36709 0
M  V30 2 C -3.92723 -0.260414 0.640969 0
M  V30 3 C -4.35216 0.759701 1.72334 0
M  V30 4 N -5.13655 -0.775097 0.100654 0
M  V30 5 C -5.5756 -0.551622 -1.07303 0
M  V30 6 N -6.82367 -1.1598 -1.4294 0
M  V30 7 N -4.84046 0.223114 -2.01405 0
M  V30 8 C -3.70028 0.685983 -1.63094 0
M  V30 9 N -2.89344 1.48172 -2.50658 0
M  V30 10 N -3.14379 0.406854 -0.360286 0
M  V30 11 C -1.77085 0.79309 -0.107836 0
M  V30 12 C -1.47196 2.03403 0.389802 0
M  V30 13 C -0.15429 2.42324 0.638682 0
M  V30 14 C 0.86583 1.54956 0.380797 0
M  V30 15 C 0.618532 0.29053 -0.119742 0
M  V30 16 C -0.715733 -0.0550581 -0.352681 0
M  V30 17 C 1.68134 -0.661805 -0.403262 0
M  V30 18 O 1.38192 -1.73083 -1.03278 0
M  V30 19 N 3.01344 -0.449383 -0.0119017 0
M  V30 20 C 4.03751 -1.40772 -0.307558 0
M  V30 21 C 5.4052 -0.99138 0.0439007 0
M  V30 22 C 5.82983 0.291523 0.283059 0
M  V30 23 C 7.14509 0.610807 0.616649 0
M  V30 24 C 8.0783 -0.393391 0.71569 0
M  V30 25 N 7.66831 -1.65174 0.482322 0
M  V30 26 C 6.40321 -1.97177 0.160128 0
M  V30 27 H -3.72802 -1.7357 2.1919 0
M  V30 28 H -2.15861 -0.956523 1.71627 0
M  V30 29 H -2.98968 -2.15953 0.61383 0
M  V30 30 H -3.77553 0.612573 2.6567 0
M  V30 31 H -4.21599 1.77798 1.3605 0
M  V30 32 H -5.43952 0.657145 1.95001 0
M  V30 33 H -6.81796 -2.15678 -1.68593 0
M  V30 34 H -7.69985 -0.62412 -1.43057 0
M  V30 35 H -3.03819 2.50777 -2.46044 0
M  V30 36 H -2.21032 1.07564 -3.14503 0
M  V30 37 H -2.2301 2.76535 0.606211 0
M  V30 38 H 0.0746799 3.40552 1.03273 0
M  V30 39 H 1.90408 1.84196 0.56701 0
M  V30 40 H -0.930446 -1.03662 -0.744532 0
M  V30 41 H 3.26791 0.414088 0.509658 0
M  V30 42 H 3.97331 -1.67601 -1.40331 0
M  V30 43 H 3.74875 -2.36459 0.199992 0
M  V30 44 H 5.09479 1.09143 0.200845 0
M  V30 45 H 7.42471 1.63695 0.79502 0
M  V30 46 H 9.1159 -0.216586 0.969832 0
M  V30 47 H 6.12735 -3.02327 -0.0206033 0
M  V30 END ATOM
M  V30 BEGIN BOND
M  V30 1 1 1 2
M  V30 2 1 2 3
M  V30 3 1 2 4
M  V30 4 2 4 5
M  V30 5 1 5 6
M  V30 6 1 5 7
M  V30 7 2 7 8
M  V30 8 1 8 9
M  V30 9 1 8 10
M  V30 10 1 10 11
M  V30 11 2 11 12
M  V30 12 1 12 13
M  V30 13 2 13 14
M  V30 14 1 14 15
M  V30 15 2 15 16
M  V30 16 1 15 17
M  V30 17 2 17 18
M  V30 18 1 17 19
M  V30 19 1 19 20
M  V30 20 1 20 21
M  V30 21 2 21 22
M  V30 22 1 22 23
M  V30 23 2 23 24
M  V30 24 1 24 25
M  V30 25 2 25 26
M  V30 26 1 10 2
M  V30 27 1 16 11
M  V30 28 1 26 21
M  V30 29 1 1 27
M  V30 30 1 1 28
M  V30 31 1 1 29
M  V30 32 1 3 30
M  V30 33 1 3 31
M  V30 34 1 3 32
M  V30 35 1 6 33
M  V30 36 1 6 34
M  V30 37 1 9 35
M  V30 38 1 9 36
M  V30 39 1 12 37
M  V30 40 1 13 38
M  V30 41 1 14 39
M  V30 42 1 16 40
M  V30 43 1 19 41
M  V30 44 1 20 42
M  V30 45 1 20 43
M  V30 46 1 22 44
M  V30 47 1 23 45
M  V30 48 1 24 46
M  V30 49 1 26 47
M  V30 END BOND
M  V30 END CTAB
M  END
