
     RDKit          3D

  0  0  0  0  0  0  0  0  0  0999 V3000
M  V30 BEGIN CTAB
M  V30 COUNTS 21 21 0 0 0
M  V30 BEGIN ATOM
M  V30 1 N 2.64274 -0.784745 0.754604 0
M  V30 2 C 1.97505 -0.770821 -0.530026 0
M  V30 3 C 0.546336 -0.192848 -0.470645 0
M  V30 4 N -0.458527 -0.849475 -0.49548 0
M  V30 5 C -1.73264 -0.510182 -0.254723 0
M  V30 6 C -1.83034 0.874645 -0.0586226 0
M  V30 7 C -0.817774 1.76268 -0.0724756 0
M  V30 8 C 0.515026 1.15165 -0.238412 0
M  V30 9 N 1.49876 2.07944 0.0162882 0
M  V30 10 C -2.80679 -1.44497 0.0290665 0
M  V30 11 F -3.17481 -1.1317 1.34562 0
M  V30 12 F -2.30013 -2.73653 0.0997516 0
M  V30 13 F -3.8434 -1.45119 -0.82837 0
M  V30 14 H 3.44149 -1.47928 0.713532 0
M  V30 15 H 1.99099 -1.03731 1.50489 0
M  V30 16 H 1.8026 -1.90054 -0.697185 0
M  V30 17 H 2.52308 -0.413919 -1.36319 0
M  V30 18 H -2.81131 1.25633 0.345647 0
M  V30 19 H -0.857528 2.78617 0.240352 0
M  V30 20 H 1.65672 2.89189 -0.588893 0
M  V30 21 H 2.04047 1.90069 0.904478 0
M  V30 END ATOM
M  V30 BEGIN BOND
M  V30 1 1 1 2
M  V30 2 1 2 3
M  V30 3 2 3 4
M  V30 4 1 4 5
M  V30 5 2 5 6
M  V30 6 1 6 7
M  V30 7 2 7 8
M  V30 8 1 8 9
M  V30 9 1 5 10
M  V30 10 1 10 11
M  V30 11 1 10 12
M  V30 12 1 10 13
M  V30 13 1 8 3
M  V30 14 1 1 14
M  V30 15 1 1 15
M  V30 16 1 2 16
M  V30 17 1 2 17
M  V30 18 1 6 18
M  V30 19 1 7 19
M  V30 20 1 9 20
M  V30 21 1 9 21
M  V30 END BOND
M  V30 END CTAB
M  END
