
     RDKit          3D

  0  0  0  0  0  0  0  0  0  0999 V3000
M  V30 BEGIN CTAB
M  V30 COUNTS 21 21 0 0 0
M  V30 BEGIN ATOM
M  V30 1 N 4.02045 0.135448 -0.454919 0
M  V30 2 C 3.05652 -0.928185 -0.253262 0
M  V30 3 C 1.71762 -0.356843 0.122691 0
M  V30 4 C 1.368 0.960596 0.268172 0
M  V30 5 N 0.146303 1.22739 0.601044 0
M  V30 6 C -0.713279 0.238435 0.787636 0
M  V30 7 S 0.24021 -1.14185 0.480412 0
M  V30 8 C -2.13841 0.415991 1.1713 0
M  V30 9 S -3.1974 0.563587 -0.230572 0
M  V30 10 O -4.60953 0.671597 0.279533 0
M  V30 11 O -2.81466 1.76148 -1.04272 0
M  V30 12 N -3.10775 -0.838073 -1.21663 0
M  V30 13 H 3.89674 0.787351 0.376452 0
M  V30 14 H 4.99607 -0.216789 -0.366847 0
M  V30 15 H 2.97657 -1.5337 -1.1841 0
M  V30 16 H 3.4064 -1.57108 0.584344 0
M  V30 17 H 2.12287 1.75415 0.101191 0
M  V30 18 H -2.47141 -0.465171 1.78395 0
M  V30 19 H -2.28286 1.29355 1.83254 0
M  V30 20 H -4.05044 -1.18026 -1.49529 0
M  V30 21 H -2.56202 -1.57763 -0.702092 0
M  V30 END ATOM
M  V30 BEGIN BOND
M  V30 1 1 1 2
M  V30 2 1 2 3
M  V30 3 2 3 4
M  V30 4 1 4 5
M  V30 5 2 5 6
M  V30 6 1 6 7
M  V30 7 1 6 8
M  V30 8 1 8 9
M  V30 9 2 9 10
M  V30 10 2 9 11
M  V30 11 1 9 12
M  V30 12 1 7 3
M  V30 13 1 1 13
M  V30 14 1 1 14
M  V30 15 1 2 15
M  V30 16 1 2 16
M  V30 17 1 4 17
M  V30 18 1 8 18
M  V30 19 1 8 19
M  V30 20 1 12 20
M  V30 21 1 12 21
M  V30 END BOND
M  V30 END CTAB
M  END
