
     RDKit          3D

  0  0  0  0  0  0  0  0  0  0999 V3000
M  V30 BEGIN CTAB
M  V30 COUNTS 15 15 0 0 0
M  V30 BEGIN ATOM
M  V30 1 N 2.1091 -0.0324524 0.104325 0
M  V30 2 C 0.71791 -0.353692 0.0518477 0
M  V30 3 C -0.248512 0.642376 -0.0411624 0
M  V30 4 N 0.143409 1.99125 -0.0847574 0
M  V30 5 C -1.55853 0.248034 -0.0863038 0
M  V30 6 F -2.50463 1.20932 -0.176705 0
M  V30 7 C -1.90619 -1.08245 -0.0414132 0
M  V30 8 F -3.2327 -1.38796 -0.0914777 0
M  V30 9 N -0.971194 -2.04268 0.0484121 0
M  V30 10 C 0.334193 -1.67765 0.09469 0
M  V30 11 F 1.32209 -2.62022 0.186254 0
M  V30 12 H 2.62804 0.023379 -0.7794 0
M  V30 13 H 2.58445 0.139807 1.00422 0
M  V30 14 H -0.402919 2.67123 -0.642067 0
M  V30 15 H 0.985484 2.27171 0.453532 0
M  V30 END ATOM
M  V30 BEGIN BOND
M  V30 1 1 1 2
M  V30 2 2 2 3
M  V30 3 1 3 4
M  V30 4 1 3 5
M  V30 5 1 5 6
M  V30 6 2 5 7
M  V30 7 1 7 8
M  V30 8 1 7 9
M  V30 9 2 9 10
M  V30 10 1 10 11
M  V30 11 1 10 2
M  V30 12 1 1 12
M  V30 13 1 1 13
M  V30 14 1 4 14
M  V30 15 1 4 15
M  V30 END BOND
M  V30 END CTAB
M  END
