
     RDKit          3D

  0  0  0  0  0  0  0  0  0  0999 V3000
M  V30 BEGIN CTAB
M  V30 COUNTS 39 40 0 0 0
M  V30 BEGIN ATOM
M  V30 1 C -3.17828 -1.52218 0.906891 0
M  V30 2 O -4.15246 -0.626189 0.62734 0
M  V30 3 C -3.83164 0.602399 0.211005 0
M  V30 4 C -3.06541 0.802027 -1.04208 0 CFG=1
M  V30 5 N -1.74657 0.263185 -1.10713 0
M  V30 6 C -0.703287 0.727457 -0.252453 0
M  V30 7 C 0.573872 0.18267 -0.331385 0
M  V30 8 C 1.60423 0.588144 0.455279 0
M  V30 9 N 1.33598 1.56737 1.34214 0
M  V30 10 C 0.0998324 2.11613 1.44014 0
M  V30 11 N -0.897521 1.69718 0.652041 0
M  V30 12 N -0.197833 3.14534 2.3665 0
M  V30 13 C 2.94725 0.0330193 0.390134 0
M  V30 14 C 3.55961 -0.0491839 -1.01365 0
M  V30 15 C 4.28686 -1.29129 -0.476598 0
M  V30 16 C 3.04087 -1.49047 0.40136 0
M  V30 17 N 5.38046 -0.867393 0.351199 0
M  V30 18 C -3.93393 0.257588 -2.181 0
M  V30 19 H -2.57657 -1.76125 0.0221633 0
M  V30 20 H -3.59448 -2.46004 1.35225 0
M  V30 21 H -2.43612 -1.07415 1.63767 0
M  V30 22 H -3.37742 1.15548 1.08274 0
M  V30 23 H -4.81157 1.18283 0.0704644 0
M  V30 24 H -2.96299 1.90768 -1.28251 0
M  V30 25 H -1.52193 -0.488631 -1.78982 0
M  V30 26 H 0.737267 -0.598215 -1.05718 0
M  V30 27 H -0.221693 2.90948 3.37489 0
M  V30 28 H -0.392127 4.12098 2.07973 0
M  V30 29 H 3.69881 0.43898 1.07481 0
M  V30 30 H 4.24271 0.798805 -1.23365 0
M  V30 31 H 2.85674 -0.334066 -1.80389 0
M  V30 32 H 4.46711 -2.07329 -1.20606 0
M  V30 33 H 3.24491 -1.92279 1.38561 0
M  V30 34 H 2.28355 -2.00786 -0.200117 0
M  V30 35 H 6.18281 -0.47727 -0.149994 0
M  V30 36 H 5.61128 -1.52284 1.12396 0
M  V30 37 H -3.34541 0.0176384 -3.07112 0
M  V30 38 H -4.73314 1.00642 -2.34879 0
M  V30 39 H -4.47379 -0.65854 -1.80092 0
M  V30 END ATOM
M  V30 BEGIN BOND
M  V30 1 1 1 2
M  V30 2 1 2 3
M  V30 3 1 3 4
M  V30 4 1 4 5
M  V30 5 1 5 6
M  V30 6 2 6 7
M  V30 7 1 7 8
M  V30 8 2 8 9
M  V30 9 1 9 10
M  V30 10 2 10 11
M  V30 11 1 10 12
M  V30 12 1 8 13
M  V30 13 1 13 14
M  V30 14 1 14 15
M  V30 15 1 15 16
M  V30 16 1 15 17
M  V30 17 1 4 18
M  V30 18 1 11 6
M  V30 19 1 16 13
M  V30 20 1 1 19
M  V30 21 1 1 20
M  V30 22 1 1 21
M  V30 23 1 3 22
M  V30 24 1 3 23
M  V30 25 1 4 24 CFG=3
M  V30 26 1 5 25
M  V30 27 1 7 26
M  V30 28 1 12 27
M  V30 29 1 12 28
M  V30 30 1 13 29
M  V30 31 1 14 30
M  V30 32 1 14 31
M  V30 33 1 15 32
M  V30 34 1 16 33
M  V30 35 1 16 34
M  V30 36 1 17 35
M  V30 37 1 17 36
M  V30 38 1 18 37
M  V30 39 1 18 38
M  V30 40 1 18 39
M  V30 END BOND
M  V30 END CTAB
M  END
