
     RDKit          3D

  0  0  0  0  0  0  0  0  0  0999 V3000
M  V30 BEGIN CTAB
M  V30 COUNTS 36 36 0 0 0
M  V30 BEGIN ATOM
M  V30 1 C -2.84255 0.800176 0.399294 0
M  V30 2 C -2.01128 -0.399296 -0.0050652 0
M  V30 3 C -2.43824 -1.60349 0.817757 0
M  V30 4 C -2.26813 -0.720028 -1.44293 0
M  V30 5 C -0.574173 -0.0488689 0.284044 0
M  V30 6 C -0.451765 0.236156 1.76121 0
M  V30 7 O -0.222638 1.05088 -0.492724 0
M  V30 8 C 1.04337 0.791702 -1.0126 0 CFG=1
M  V30 9 C 1.95569 1.98049 -0.968827 0
M  V30 10 N 2.19422 2.48747 0.351361 0
M  V30 11 C 1.50302 -0.344163 -0.138282 0 CFG=2
M  V30 12 C 2.59596 -1.16298 -0.740554 0
M  V30 13 N 2.81913 -2.3108 0.124378 0
M  V30 14 O 0.30602 -1.07134 -0.0203217 0
M  V30 15 H -3.76485 0.505361 0.937537 0
M  V30 16 H -3.13107 1.34582 -0.525157 0
M  V30 17 H -2.25571 1.53523 1.00379 0
M  V30 18 H -3.50599 -1.49379 1.08195 0
M  V30 19 H -2.37558 -2.51653 0.176234 0
M  V30 20 H -1.80618 -1.77081 1.69393 0
M  V30 21 H -2.90937 0.052926 -1.93197 0
M  V30 22 H -2.80014 -1.68946 -1.59021 0
M  V30 23 H -1.33373 -0.755935 -2.04888 0
M  V30 24 H 0.258219 -0.480698 2.26884 0
M  V30 25 H -1.44985 0.167469 2.2851 0
M  V30 26 H -0.0624776 1.24168 1.98197 0
M  V30 27 H 1.00569 0.431398 -2.05327 0
M  V30 28 H 2.89399 1.72203 -1.45417 0
M  V30 29 H 1.47457 2.78946 -1.55554 0
M  V30 30 H 2.94777 3.19279 0.292822 0
M  V30 31 H 1.33545 2.8592 0.804347 0
M  V30 32 H 1.80092 -0.0449994 0.86964 0
M  V30 33 H 3.5136 -0.577385 -0.753529 0
M  V30 34 H 2.33081 -1.55996 -1.74511 0
M  V30 35 H 3.84176 -2.4581 0.291012 0
M  V30 36 H 2.38353 -2.1816 1.05391 0
M  V30 END ATOM
M  V30 BEGIN BOND
M  V30 1 1 1 2
M  V30 2 1 2 3
M  V30 3 1 2 4
M  V30 4 1 2 5
M  V30 5 1 5 6
M  V30 6 1 5 7
M  V30 7 1 7 8
M  V30 8 1 8 9
M  V30 9 1 9 10
M  V30 10 1 8 11
M  V30 11 1 11 12
M  V30 12 1 12 13
M  V30 13 1 11 14
M  V30 14 1 14 5
M  V30 15 1 1 15
M  V30 16 1 1 16
M  V30 17 1 1 17
M  V30 18 1 3 18
M  V30 19 1 3 19
M  V30 20 1 3 20
M  V30 21 1 4 21
M  V30 22 1 4 22
M  V30 23 1 4 23
M  V30 24 1 6 24
M  V30 25 1 6 25
M  V30 26 1 6 26
M  V30 27 1 8 27 CFG=3
M  V30 28 1 9 28
M  V30 29 1 9 29
M  V30 30 1 10 30
M  V30 31 1 10 31
M  V30 32 1 11 32 CFG=1
M  V30 33 1 12 33
M  V30 34 1 12 34
M  V30 35 1 13 35
M  V30 36 1 13 36
M  V30 END BOND
M  V30 END CTAB
M  END
