
     RDKit          3D

  0  0  0  0  0  0  0  0  0  0999 V3000
M  V30 BEGIN CTAB
M  V30 COUNTS 26 27 0 0 0
M  V30 BEGIN ATOM
M  V30 1 N -2.19058 1.62486 -1.9825 0
M  V30 2 C -2.6734 0.826067 -0.889107 0
M  V30 3 C -3.99208 0.734607 -0.631218 0
M  V30 4 C -4.51067 -0.0218763 0.410703 0
M  V30 5 C -3.64802 -0.712 1.22093 0
M  V30 6 C -2.26952 -0.629408 0.96833 0
M  V30 7 C -1.7465 0.116637 -0.0604317 0
M  V30 8 S -0.111194 0.332604 -0.514103 0
M  V30 9 C 1.22884 -0.389219 0.28734 0
M  V30 10 N 1.43779 -1.19998 1.32368 0
M  V30 11 N 2.71545 -1.43593 1.49746 0
M  V30 12 C 3.40719 -0.781009 0.56994 0
M  V30 13 N 2.51692 -0.138769 -0.174863 0
M  V30 14 N 2.83273 0.677861 -1.27396 0
M  V30 15 C 4.89341 -0.80063 0.439439 0
M  V30 16 Cl -1.28445 -1.55859 2.07773 0
M  V30 17 H -2.12957 2.65794 -1.84812 0
M  V30 18 H -1.90404 1.21369 -2.89017 0
M  V30 19 H -4.71096 1.27299 -1.25848 0
M  V30 20 H -5.5717 -0.0790623 0.596792 0
M  V30 21 H -4.02256 -1.30668 2.03651 0
M  V30 22 H 3.13456 0.278546 -2.19221 0
M  V30 23 H 2.77545 1.72658 -1.20871 0
M  V30 24 H 5.33235 -0.686199 1.47368 0
M  V30 25 H 5.26335 0.0547997 -0.152294 0
M  V30 26 H 5.22719 -1.77783 0.0631578 0
M  V30 END ATOM
M  V30 BEGIN BOND
M  V30 1 1 1 2
M  V30 2 2 2 3
M  V30 3 1 3 4
M  V30 4 2 4 5
M  V30 5 1 5 6
M  V30 6 2 6 7
M  V30 7 1 7 8
M  V30 8 1 8 9
M  V30 9 2 9 10
M  V30 10 1 10 11
M  V30 11 2 11 12
M  V30 12 1 12 13
M  V30 13 1 13 14
M  V30 14 1 12 15
M  V30 15 1 6 16
M  V30 16 1 7 2
M  V30 17 1 13 9
M  V30 18 1 1 17
M  V30 19 1 1 18
M  V30 20 1 3 19
M  V30 21 1 4 20
M  V30 22 1 5 21
M  V30 23 1 14 22
M  V30 24 1 14 23
M  V30 25 1 15 24
M  V30 26 1 15 25
M  V30 27 1 15 26
M  V30 END BOND
M  V30 END CTAB
M  END
