
     RDKit          3D

  0  0  0  0  0  0  0  0  0  0999 V3000
M  V30 BEGIN CTAB
M  V30 COUNTS 43 44 0 0 0
M  V30 BEGIN ATOM
M  V30 1 N -0.260708 0.0520184 4.56172 0
M  V30 2 C -0.431584 -0.177976 3.42004 0
M  V30 3 C -0.680931 -0.460005 1.9823 0
M  V30 4 C 0.377685 -0.85166 1.32039 0
M  V30 5 N 0.413564 -1.18356 -0.0578637 0
M  V30 6 C 1.08514 -0.275245 -0.972017 0
M  V30 7 C 2.52422 -0.115072 -0.701016 0
M  V30 8 C 3.15934 1.02257 -1.15332 0
M  V30 9 C 4.50485 1.22123 -0.932954 0
M  V30 10 C 5.24315 0.2951 -0.260359 0
M  V30 11 C 4.6101 -0.845241 0.193786 0
M  V30 12 C 3.24474 -1.06182 -0.0219411 0
M  V30 13 S 6.93967 0.543935 0.0185147 0
M  V30 14 O 7.51354 1.43681 -1.06123 0
M  V30 15 O 7.72002 -0.719822 0.036354 0
M  V30 16 N 7.13217 1.37353 1.51647 0
M  V30 17 C -2.01029 -0.281186 1.47292 0
M  V30 18 O -2.85058 0.11575 2.37419 0
M  V30 19 N -2.53793 -0.45668 0.208555 0
M  V30 20 C -3.91467 -0.239394 -0.116752 0
M  V30 21 C -4.17951 0.136013 -1.43919 0
M  V30 22 C -5.46271 0.34818 -1.89156 0
M  V30 23 C -6.52669 0.185785 -1.0127 0
M  V30 24 C -6.2986 -0.182263 0.29031 0
M  V30 25 C -4.97535 -0.385462 0.697275 0
M  V30 26 Cl -7.62455 -0.392343 1.41393 0
M  V30 27 N -7.83656 0.412282 -1.50936 0
M  V30 28 H 1.3307 -0.929288 1.89138 0
M  V30 29 H -0.0105125 -2.05541 -0.402297 0
M  V30 30 H 0.636874 0.754536 -0.859977 0
M  V30 31 H 0.975083 -0.667045 -1.98236 0
M  V30 32 H 2.63071 1.79555 -1.69345 0
M  V30 33 H 4.97142 2.11463 -1.29596 0
M  V30 34 H 5.18283 -1.58299 0.725827 0
M  V30 35 H 2.81712 -1.97936 0.359041 0
M  V30 36 H 6.94847 0.733765 2.32556 0
M  V30 37 H 8.07933 1.81187 1.55974 0
M  V30 38 H -1.91176 -0.775002 -0.598868 0
M  V30 39 H -3.34337 0.263597 -2.12818 0
M  V30 40 H -5.66966 0.638668 -2.91437 0
M  V30 41 H -4.85223 -0.691085 1.71388 0
M  V30 42 H -8.12394 1.39476 -1.72351 0
M  V30 43 H -8.53861 -0.342665 -1.67674 0
M  V30 END ATOM
M  V30 BEGIN BOND
M  V30 1 3 1 2
M  V30 2 1 2 3
M  V30 3 2 3 4
M  V30 4 1 4 5
M  V30 5 1 5 6
M  V30 6 1 6 7
M  V30 7 2 7 8
M  V30 8 1 8 9
M  V30 9 2 9 10
M  V30 10 1 10 11
M  V30 11 2 11 12
M  V30 12 1 10 13
M  V30 13 2 13 14
M  V30 14 2 13 15
M  V30 15 1 13 16
M  V30 16 1 3 17
M  V30 17 2 17 18
M  V30 18 1 17 19
M  V30 19 1 19 20
M  V30 20 2 20 21
M  V30 21 1 21 22
M  V30 22 2 22 23
M  V30 23 1 23 24
M  V30 24 2 24 25
M  V30 25 1 24 26
M  V30 26 1 23 27
M  V30 27 1 12 7
M  V30 28 1 25 20
M  V30 29 1 4 28
M  V30 30 1 5 29
M  V30 31 1 6 30
M  V30 32 1 6 31
M  V30 33 1 8 32
M  V30 34 1 9 33
M  V30 35 1 11 34
M  V30 36 1 12 35
M  V30 37 1 16 36
M  V30 38 1 16 37
M  V30 39 1 19 38
M  V30 40 1 21 39
M  V30 41 1 22 40
M  V30 42 1 25 41
M  V30 43 1 27 42
M  V30 44 1 27 43
M  V30 END BOND
M  V30 END CTAB
M  END
