
     RDKit          3D

  0  0  0  0  0  0  0  0  0  0999 V3000
M  V30 BEGIN CTAB
M  V30 COUNTS 24 25 0 0 0
M  V30 BEGIN ATOM
M  V30 1 F -2.34434 3.22472 -0.502066 0
M  V30 2 C -1.81071 1.984 -0.329822 0
M  V30 3 C -2.62588 0.893269 -0.247488 0
M  V30 4 C -2.05084 -0.3386 -0.0740305 0
M  V30 5 C -2.92045 -1.51875 0.0157063 0
M  V30 6 C -0.674838 -0.508938 0.0197029 0
M  V30 7 C 0.155763 0.589172 -0.0626534 0
M  V30 8 C -0.431845 1.82385 -0.237109 0
M  V30 9 C 1.52351 0.442024 0.0279408 0
M  V30 10 N 2.35728 1.56708 -0.0573567 0
M  V30 11 C 2.09796 -0.816291 0.204412 0
M  V30 12 C 1.23154 -1.88951 0.281965 0
M  V30 13 N -0.10357 -1.70935 0.189305 0
M  V30 14 N 3.49839 -0.971349 0.29769 0
M  V30 15 H -3.70265 1.01465 -0.319457 0
M  V30 16 H -3.30044 -1.59326 1.06094 0
M  V30 17 H -2.36227 -2.4439 -0.240694 0
M  V30 18 H -3.80297 -1.46249 -0.644706 0
M  V30 19 H 0.22851 2.67064 -0.299556 0
M  V30 20 H 2.94919 1.84289 0.743974 0
M  V30 21 H 2.37349 2.11896 -0.93266 0
M  V30 22 H 1.68652 -2.86647 0.419446 0
M  V30 23 H 4.06971 -1.21159 -0.529395 0
M  V30 24 H 3.95895 -0.84076 1.21592 0
M  V30 END ATOM
M  V30 BEGIN BOND
M  V30 1 1 1 2
M  V30 2 2 2 3
M  V30 3 1 3 4
M  V30 4 1 4 5
M  V30 5 2 4 6
M  V30 6 1 6 7
M  V30 7 2 7 8
M  V30 8 1 7 9
M  V30 9 1 9 10
M  V30 10 2 9 11
M  V30 11 1 11 12
M  V30 12 2 12 13
M  V30 13 1 11 14
M  V30 14 1 8 2
M  V30 15 1 13 6
M  V30 16 1 3 15
M  V30 17 1 5 16
M  V30 18 1 5 17
M  V30 19 1 5 18
M  V30 20 1 8 19
M  V30 21 1 10 20
M  V30 22 1 10 21
M  V30 23 1 12 22
M  V30 24 1 14 23
M  V30 25 1 14 24
M  V30 END BOND
M  V30 END CTAB
M  END
