
     RDKit          3D

  0  0  0  0  0  0  0  0  0  0999 V3000
M  V30 BEGIN CTAB
M  V30 COUNTS 33 34 0 0 0
M  V30 BEGIN ATOM
M  V30 1 N 4.79505 0.649729 -0.34462 0
M  V30 2 C 3.42329 0.383295 -0.0557871 0
M  V30 3 C 2.85145 -0.555828 -1.08657 0
M  V30 4 N 1.4979 -0.895641 -0.906834 0
M  V30 5 C 1.16509 -1.69651 0.211597 0
M  V30 6 C -0.0187519 -1.0578 0.859337 0
M  V30 7 C -0.198025 0.269763 0.142867 0 CFG=1
M  V30 8 C 0.519043 0.0993384 -1.1488 0
M  V30 9 C -1.6228 0.550979 0.0557261 0
M  V30 10 C -2.12984 1.68389 0.65471 0
M  V30 11 C -3.46137 2.02887 0.625131 0
M  V30 12 N -4.29622 1.20984 -0.0245967 0
M  V30 13 C -3.86465 0.0910285 -0.628304 0
M  V30 14 C -2.53567 -0.261015 -0.603158 0
M  V30 15 N -4.82107 -0.723589 -1.29751 0
M  V30 16 H 5.01599 1.64118 -0.293699 0
M  V30 17 H 5.46242 0.0991143 0.181036 0
M  V30 18 H 2.87524 1.32892 -0.112348 0
M  V30 19 H 3.39151 -0.107418 0.937017 0
M  V30 20 H 3.46125 -1.49212 -1.03999 0
M  V30 21 H 3.01602 -0.131453 -2.09554 0
M  V30 22 H 1.97791 -1.80668 0.958358 0
M  V30 23 H 0.882503 -2.71881 -0.175129 0
M  V30 24 H 0.158061 -0.911728 1.93987 0
M  V30 25 H -0.952199 -1.66341 0.756392 0
M  V30 26 H 0.279368 1.09214 0.711932 0
M  V30 27 H -0.113815 -0.222573 -1.98777 0
M  V30 28 H 1.03 1.03863 -1.49935 0
M  V30 29 H -1.45875 2.36271 1.19077 0
M  V30 30 H -3.84885 2.93204 1.10472 0
M  V30 31 H -2.14915 -1.13396 -1.06448 0
M  V30 32 H -5.5022 -0.348195 -1.98045 0
M  V30 33 H -4.82876 -1.73473 -1.08515 0
M  V30 END ATOM
M  V30 BEGIN BOND
M  V30 1 1 1 2
M  V30 2 1 2 3
M  V30 3 1 3 4
M  V30 4 1 4 5
M  V30 5 1 5 6
M  V30 6 1 6 7
M  V30 7 1 7 8
M  V30 8 1 7 9
M  V30 9 2 9 10
M  V30 10 1 10 11
M  V30 11 2 11 12
M  V30 12 1 12 13
M  V30 13 2 13 14
M  V30 14 1 13 15
M  V30 15 1 8 4
M  V30 16 1 14 9
M  V30 17 1 1 16
M  V30 18 1 1 17
M  V30 19 1 2 18
M  V30 20 1 2 19
M  V30 21 1 3 20
M  V30 22 1 3 21
M  V30 23 1 5 22
M  V30 24 1 5 23
M  V30 25 1 6 24
M  V30 26 1 6 25
M  V30 27 1 7 26 CFG=1
M  V30 28 1 8 27
M  V30 29 1 8 28
M  V30 30 1 10 29
M  V30 31 1 11 30
M  V30 32 1 14 31
M  V30 33 1 15 32
M  V30 34 1 15 33
M  V30 END BOND
M  V30 END CTAB
M  END
