
     RDKit          3D

  0  0  0  0  0  0  0  0  0  0999 V3000
M  V30 BEGIN CTAB
M  V30 COUNTS 22 23 0 0 0
M  V30 BEGIN ATOM
M  V30 1 N -3.38247 -2.06849 0.284979 0
M  V30 2 C -2.51143 -0.960573 0.152323 0
M  V30 3 N -1.17567 -1.10666 0.1672 0
M  V30 4 C -0.320626 -0.0999442 0.0465399 0
M  V30 5 N -0.825515 1.13825 -0.0990572 0
M  V30 6 C -2.17449 1.34002 -0.1205 0
M  V30 7 N -2.61835 2.66808 -0.276826 0
M  V30 8 N -2.988 0.28446 0.00586539 0
M  V30 9 C 1.13804 -0.274616 0.0645866 0
M  V30 10 N 1.71479 -1.46983 0.204981 0
M  V30 11 C 3.04316 -1.67917 0.227347 0
M  V30 12 C 3.86243 -0.58143 0.0959565 0
M  V30 13 C 3.34641 0.689389 -0.0534946 0
M  V30 14 C 1.97194 0.815989 -0.0659855 0
M  V30 15 H -4.4067 -1.95095 0.290483 0
M  V30 16 H -3.00843 -3.03612 0.380946 0
M  V30 17 H -2.94527 2.98371 -1.19991 0
M  V30 18 H -2.61377 3.31121 0.525807 0
M  V30 19 H 3.45387 -2.69489 0.346798 0
M  V30 20 H 4.9383 -0.689352 0.106779 0
M  V30 21 H 3.97053 1.57475 -0.159401 0
M  V30 22 H 1.53125 1.80617 -0.182355 0
M  V30 END ATOM
M  V30 BEGIN BOND
M  V30 1 1 1 2
M  V30 2 2 2 3
M  V30 3 1 3 4
M  V30 4 2 4 5
M  V30 5 1 5 6
M  V30 6 1 6 7
M  V30 7 2 6 8
M  V30 8 1 4 9
M  V30 9 2 9 10
M  V30 10 1 10 11
M  V30 11 2 11 12
M  V30 12 1 12 13
M  V30 13 2 13 14
M  V30 14 1 8 2
M  V30 15 1 14 9
M  V30 16 1 1 15
M  V30 17 1 1 16
M  V30 18 1 7 17
M  V30 19 1 7 18
M  V30 20 1 11 19
M  V30 21 1 12 20
M  V30 22 1 13 21
M  V30 23 1 14 22
M  V30 END BOND
M  V30 END CTAB
M  END
