
     RDKit          3D

  0  0  0  0  0  0  0  0  0  0999 V3000
M  V30 BEGIN CTAB
M  V30 COUNTS 36 37 0 0 0
M  V30 BEGIN ATOM
M  V30 1 N -2.81214 -1.48994 1.5023 0
M  V30 2 C -2.84045 -0.390401 0.561748 0
M  V30 3 C -3.78627 0.69626 0.968862 0
M  V30 4 C -5.23349 0.453066 1.14686 0
M  V30 5 C -4.79469 1.07876 -0.107377 0
M  V30 6 C -1.48133 0.240145 0.378851 0
M  V30 7 N -0.502138 -0.708126 -0.119169 0
M  V30 8 C 0.836545 -0.330081 -0.359869 0
M  V30 9 C 1.22059 1.01021 -0.186975 0
M  V30 10 C 2.50088 1.42985 -0.436245 0
M  V30 11 C 3.4638 0.546267 -0.868188 0
M  V30 12 C 3.0782 -0.756679 -1.03234 0
M  V30 13 C 1.7736 -1.21803 -0.784753 0
M  V30 14 N 1.56654 -2.59695 -1.01317 0 CHG=1
M  V30 15 O 0.804059 -3.25426 -0.319439 0
M  V30 16 O 2.26328 -3.21881 -2.01592 0 CHG=-1
M  V30 17 S 5.11187 1.06194 -1.19554 0
M  V30 18 O 5.67279 0.0818954 -2.19246 0
M  V30 19 O 5.11294 2.42624 -1.78623 0
M  V30 20 N 6.08659 0.948762 0.222029 0
M  V30 21 H -3.6956 -1.48675 2.03386 0
M  V30 22 H -1.95803 -1.48912 2.09565 0
M  V30 23 H -3.15386 -0.837543 -0.410301 0
M  V30 24 H -3.31095 1.53008 1.55793 0
M  V30 25 H -5.74783 1.14974 1.86857 0
M  V30 26 H -5.58875 -0.577287 1.15107 0
M  V30 27 H -4.85508 0.451119 -1.01725 0
M  V30 28 H -4.84787 2.1561 -0.311642 0
M  V30 29 H -1.60241 1.02971 -0.395331 0
M  V30 30 H -1.1399 0.609714 1.34727 0
M  V30 31 H -0.832684 -1.66111 -0.297251 0
M  V30 32 H 0.456007 1.68974 0.151358 0
M  V30 33 H 2.76072 2.48568 -0.289043 0
M  V30 34 H 3.82012 -1.48963 -1.37536 0
M  V30 35 H 5.56818 0.321684 0.884886 0
M  V30 36 H 6.08676 1.92583 0.642618 0
M  V30 END ATOM
M  V30 BEGIN BOND
M  V30 1 1 1 2
M  V30 2 1 2 3
M  V30 3 1 3 4
M  V30 4 1 4 5
M  V30 5 1 2 6
M  V30 6 1 6 7
M  V30 7 1 7 8
M  V30 8 2 8 9
M  V30 9 1 9 10
M  V30 10 2 10 11
M  V30 11 1 11 12
M  V30 12 2 12 13
M  V30 13 1 13 14
M  V30 14 2 14 15
M  V30 15 1 14 16
M  V30 16 1 11 17
M  V30 17 2 17 18
M  V30 18 2 17 19
M  V30 19 1 17 20
M  V30 20 1 5 3
M  V30 21 1 13 8
M  V30 22 1 1 21
M  V30 23 1 1 22
M  V30 24 1 2 23
M  V30 25 1 3 24
M  V30 26 1 4 25
M  V30 27 1 4 26
M  V30 28 1 5 27
M  V30 29 1 5 28
M  V30 30 1 6 29
M  V30 31 1 6 30
M  V30 32 1 7 31
M  V30 33 1 9 32
M  V30 34 1 10 33
M  V30 35 1 12 34
M  V30 36 1 20 35
M  V30 37 1 20 36
M  V30 END BOND
M  V30 END CTAB
M  END
