
     RDKit          3D

  0  0  0  0  0  0  0  0  0  0999 V3000
M  V30 BEGIN CTAB
M  V30 COUNTS 42 43 0 0 0
M  V30 BEGIN ATOM
M  V30 1 N 6.69268 -1.88028 -0.985955 0
M  V30 2 N 6.04549 -1.18633 0.0213252 0
M  V30 3 C 4.68051 -0.76385 -0.0462655 0
M  V30 4 C 4.32751 0.464506 -0.562713 0
M  V30 5 C 3.01412 0.88599 -0.634445 0
M  V30 6 C 1.96698 0.0740032 -0.180063 0
M  V30 7 C 2.34475 -1.14436 0.329882 0
M  V30 8 C 3.65682 -1.57211 0.404675 0
M  V30 9 C 0.59532 0.54781 -0.278021 0
M  V30 10 C -0.421472 -0.162878 0.136213 0
M  V30 11 C -1.80041 0.286515 0.0500712 0
M  V30 12 C -2.78576 -0.584163 0.531122 0
M  V30 13 C -4.10365 -0.189593 0.46773 0
M  V30 14 C -4.51401 1.00623 -0.0385279 0
M  V30 15 N -5.90152 1.30878 -0.0541997 0
M  V30 16 N -6.86189 0.43012 0.42724 0
M  V30 17 C -3.54652 1.85516 -0.508271 0
M  V30 18 C -2.19821 1.48927 -0.46049 0
M  V30 19 S -2.38641 -2.13233 1.19411 0
M  V30 20 O -3.81558 -2.89188 1.67572 0
M  V30 21 O -1.53444 -2.05122 2.42148 0
M  V30 22 O -1.73105 -3.0108 0.154605 0
M  V30 23 S 2.59278 2.45382 -1.2863 0
M  V30 24 O 1.83271 3.41451 -0.168988 0
M  V30 25 O 3.88374 3.15187 -1.67578 0
M  V30 26 O 1.79295 2.32187 -2.5676 0
M  V30 27 H 6.10676 -2.05328 -1.81968 0
M  V30 28 H 7.06962 -2.76375 -0.619736 0
M  V30 29 H 6.58053 -0.955294 0.882947 0
M  V30 30 H 5.11397 1.12767 -0.927956 0
M  V30 31 H 1.60567 -1.83529 0.703213 0
M  V30 32 H 3.93555 -2.53563 0.809732 0
M  V30 33 H 0.393997 1.51617 -0.70735 0
M  V30 34 H -0.226469 -1.12887 0.563456 0
M  V30 35 H -4.87141 -0.872843 0.844951 0
M  V30 36 H -6.21651 2.23584 -0.44598 0
M  V30 37 H -7.81817 0.793457 0.223654 0
M  V30 38 H -6.73709 -0.549441 0.0896055 0
M  V30 39 H -3.85096 2.81887 -0.918609 0
M  V30 40 H -1.46187 2.1768 -0.836732 0
M  V30 41 H -3.9272 -3.77316 1.27239 0
M  V30 42 H 2.47818 3.67807 0.513882 0
M  V30 END ATOM
M  V30 BEGIN BOND
M  V30 1 1 1 2
M  V30 2 1 2 3
M  V30 3 2 3 4
M  V30 4 1 4 5
M  V30 5 2 5 6
M  V30 6 1 6 7
M  V30 7 2 7 8
M  V30 8 1 6 9
M  V30 9 2 9 10
M  V30 10 1 10 11
M  V30 11 2 11 12
M  V30 12 1 12 13
M  V30 13 2 13 14
M  V30 14 1 14 15
M  V30 15 1 15 16
M  V30 16 1 14 17
M  V30 17 2 17 18
M  V30 18 1 12 19
M  V30 19 1 19 20
M  V30 20 2 19 21
M  V30 21 2 19 22
M  V30 22 1 5 23
M  V30 23 1 23 24
M  V30 24 2 23 25
M  V30 25 2 23 26
M  V30 26 1 8 3
M  V30 27 1 18 11
M  V30 28 1 1 27
M  V30 29 1 1 28
M  V30 30 1 2 29
M  V30 31 1 4 30
M  V30 32 1 7 31
M  V30 33 1 8 32
M  V30 34 1 9 33
M  V30 35 1 10 34
M  V30 36 1 13 35
M  V30 37 1 15 36
M  V30 38 1 16 37
M  V30 39 1 16 38
M  V30 40 1 17 39
M  V30 41 1 18 40
M  V30 42 1 20 41
M  V30 43 1 24 42
M  V30 END BOND
M  V30 END CTAB
M  END
