
     RDKit          3D

  0  0  0  0  0  0  0  0  0  0999 V3000
M  V30 BEGIN CTAB
M  V30 COUNTS 30 30 0 0 0
M  V30 BEGIN ATOM
M  V30 1 N 3.85836 -0.00861959 0.210024 0
M  V30 2 C 2.62695 0.0207618 0.957581 0
M  V30 3 C 1.41701 -0.193693 0.0233727 0
M  V30 4 C 0.229096 -0.141276 0.895515 0
M  V30 5 C -1.08462 -0.310975 0.323785 0
M  V30 6 C -1.81466 0.693991 -0.233474 0
M  V30 7 C -1.39283 2.13366 -0.241425 0
M  V30 8 C -3.06695 0.42746 -0.811556 0
M  V30 9 C -3.56847 -0.833885 -0.821901 0
M  V30 10 N -2.84456 -1.82445 -0.268446 0
M  V30 11 C -1.64141 -1.60022 0.292144 0
M  V30 12 N -0.97162 -2.70954 0.843081 0
M  V30 13 C 1.54644 0.765632 -1.09162 0
M  V30 14 H 3.9045 -0.797147 -0.470052 0
M  V30 15 H 4.10548 0.909031 -0.212248 0
M  V30 16 H 2.60375 -0.761918 1.73961 0
M  V30 17 H 2.49302 0.990195 1.45266 0
M  V30 18 H 1.55482 -1.2279 -0.391079 0
M  V30 19 H 0.289352 0.842306 1.46237 0
M  V30 20 H 0.381614 -0.944848 1.69063 0
M  V30 21 H -0.623372 2.35855 0.512806 0
M  V30 22 H -1.09336 2.4228 -1.2608 0
M  V30 23 H -2.27999 2.74817 0.0585088 0
M  V30 24 H -3.60501 1.26826 -1.2431 0
M  V30 25 H -4.53801 -0.997996 -1.27712 0
M  V30 26 H -0.984851 -2.86822 1.86246 0
M  V30 27 H -0.461015 -3.37527 0.243199 0
M  V30 28 H 0.791335 0.710213 -1.88335 0
M  V30 29 H 2.52332 0.492862 -1.62261 0
M  V30 30 H 1.64568 1.81206 -0.738957 0
M  V30 END ATOM
M  V30 BEGIN BOND
M  V30 1 1 1 2
M  V30 2 1 2 3
M  V30 3 1 3 4
M  V30 4 1 4 5
M  V30 5 2 5 6
M  V30 6 1 6 7
M  V30 7 1 6 8
M  V30 8 2 8 9
M  V30 9 1 9 10
M  V30 10 2 10 11
M  V30 11 1 11 12
M  V30 12 1 3 13
M  V30 13 1 11 5
M  V30 14 1 1 14
M  V30 15 1 1 15
M  V30 16 1 2 16
M  V30 17 1 2 17
M  V30 18 1 3 18
M  V30 19 1 4 19
M  V30 20 1 4 20
M  V30 21 1 7 21
M  V30 22 1 7 22
M  V30 23 1 7 23
M  V30 24 1 8 24
M  V30 25 1 9 25
M  V30 26 1 12 26
M  V30 27 1 12 27
M  V30 28 1 13 28
M  V30 29 1 13 29
M  V30 30 1 13 30
M  V30 END BOND
M  V30 END CTAB
M  END
