
     RDKit          3D

  0  0  0  0  0  0  0  0  0  0999 V3000
M  V30 BEGIN CTAB
M  V30 COUNTS 32 33 0 0 0
M  V30 BEGIN ATOM
M  V30 1 N -0.351178 1.67185 -1.95349 0
M  V30 2 N 0.672476 1.1183 -1.27084 0
M  V30 3 C 0.611541 0.17738 -0.417193 0
M  V30 4 C 1.96658 -0.193996 0.138179 0
M  V30 5 C 2.1697 -0.782888 1.3373 0
M  V30 6 C 3.42504 -1.15169 1.75301 0
M  V30 7 C 4.52887 -0.918996 0.931836 0
M  V30 8 C 4.34247 -0.316442 -0.296909 0
M  V30 9 C 3.08148 0.0290427 -0.663382 0
M  V30 10 C -0.607305 -0.333059 0.122515 0
M  V30 11 C -1.93908 0.247877 0.148592 0
M  V30 12 C -2.15685 1.57513 0.413192 0
M  V30 13 C -3.39653 2.18421 0.402092 0
M  V30 14 C -4.4949 1.43521 0.112429 0
M  V30 15 C -4.33563 0.0897892 -0.161242 0
M  V30 16 C -3.09392 -0.492491 -0.144816 0
M  V30 17 N -0.669492 -1.64274 0.281643 0
M  V30 18 N 0.284234 -2.55936 -0.0182241 0
M  V30 19 H -0.485227 2.70818 -1.98409 0
M  V30 20 H -1.04313 1.09202 -2.47651 0
M  V30 21 H 1.36509 -0.949012 2.02543 0
M  V30 22 H 3.62628 -1.62592 2.70386 0
M  V30 23 H 5.53419 -1.19792 1.22963 0
M  V30 24 H 5.20544 -0.140966 -0.923412 0
M  V30 25 H 2.95055 0.500159 -1.62863 0
M  V30 26 H -1.32863 2.20719 0.684104 0
M  V30 27 H -3.49336 3.2407 0.62032 0
M  V30 28 H -5.46127 1.88859 0.0990682 0
M  V30 29 H -5.24298 -0.465222 -0.386046 0
M  V30 30 H -3.01659 -1.54411 -0.364145 0
M  V30 31 H 0.817575 -2.49294 -0.919992 0
M  V30 32 H 0.534557 -3.35788 0.605714 0
M  V30 END ATOM
M  V30 BEGIN BOND
M  V30 1 1 1 2
M  V30 2 2 2 3
M  V30 3 1 3 4
M  V30 4 2 4 5
M  V30 5 1 5 6
M  V30 6 2 6 7
M  V30 7 1 7 8
M  V30 8 2 8 9
M  V30 9 1 3 10
M  V30 10 1 10 11
M  V30 11 2 11 12
M  V30 12 1 12 13
M  V30 13 2 13 14
M  V30 14 1 14 15
M  V30 15 2 15 16
M  V30 16 2 10 17
M  V30 17 1 17 18
M  V30 18 1 9 4
M  V30 19 1 16 11
M  V30 20 1 1 19
M  V30 21 1 1 20
M  V30 22 1 5 21
M  V30 23 1 6 22
M  V30 24 1 7 23
M  V30 25 1 8 24
M  V30 26 1 9 25
M  V30 27 1 12 26
M  V30 28 1 13 27
M  V30 29 1 14 28
M  V30 30 1 15 29
M  V30 31 1 16 30
M  V30 32 1 18 31
M  V30 33 1 18 32
M  V30 END BOND
M  V30 END CTAB
M  END
