
     RDKit          3D

  0  0  0  0  0  0  0  0  0  0999 V3000
M  V30 BEGIN CTAB
M  V30 COUNTS 23 23 0 0 0
M  V30 BEGIN ATOM
M  V30 1 N -3.28283 2.67921 1.46224 0
M  V30 2 C -2.56843 1.88481 1.03981 0
M  V30 3 C -1.65586 0.897115 0.492089 0
M  V30 4 C -0.391906 0.749531 1.02932 0
M  V30 5 C 0.486989 -0.186884 0.517342 0
M  V30 6 C 1.85688 -0.359164 1.08887 0
M  V30 7 C 2.84971 0.268802 0.171122 0
M  V30 8 O 2.4991 0.832335 -0.902642 0
M  V30 9 O 4.20524 0.262925 0.456214 0
M  V30 10 C 0.0402201 -0.956235 -0.545705 0
M  V30 11 C -1.23438 -0.800791 -1.08126 0
M  V30 12 C -2.10417 0.135022 -0.564056 0
M  V30 13 N -3.41146 0.334573 -1.07343 0
M  V30 14 N 0.949232 -1.90672 -1.05665 0
M  V30 15 H -0.0829308 1.37615 1.86516 0
M  V30 16 H 1.87931 0.179187 2.04767 0
M  V30 17 H 2.08707 -1.41773 1.30542 0
M  V30 18 H 4.69377 1.14386 0.642063 0
M  V30 19 H -1.54436 -1.42039 -1.91164 0
M  V30 20 H -4.21922 0.299217 -0.42824 0
M  V30 21 H -3.60679 0.518423 -2.0806 0
M  V30 22 H 1.06836 -2.81256 -0.568187 0
M  V30 23 H 1.48646 -1.7007 -1.90492 0
M  V30 END ATOM
M  V30 BEGIN BOND
M  V30 1 3 1 2
M  V30 2 1 2 3
M  V30 3 2 3 4
M  V30 4 1 4 5
M  V30 5 1 5 6
M  V30 6 1 6 7
M  V30 7 2 7 8
M  V30 8 1 7 9
M  V30 9 2 5 10
M  V30 10 1 10 11
M  V30 11 2 11 12
M  V30 12 1 12 13
M  V30 13 1 10 14
M  V30 14 1 12 3
M  V30 15 1 4 15
M  V30 16 1 6 16
M  V30 17 1 6 17
M  V30 18 1 9 18
M  V30 19 1 11 19
M  V30 20 1 13 20
M  V30 21 1 13 21
M  V30 22 1 14 22
M  V30 23 1 14 23
M  V30 END BOND
M  V30 END CTAB
M  END
