
     RDKit          3D

  0  0  0  0  0  0  0  0  0  0999 V3000
M  V30 BEGIN CTAB
M  V30 COUNTS 27 27 0 0 0
M  V30 BEGIN ATOM
M  V30 1 N -4.72241 -1.09543 -0.496444 0
M  V30 2 C -3.77772 -0.0717211 -0.461109 0
M  V30 3 C -2.82508 0.186989 0.587602 0
M  V30 4 N -1.6824 -0.472746 0.700964 0
M  V30 5 S -0.613844 -0.132793 -0.63917 0
M  V30 6 O -0.570253 -1.34835 -1.55808 0
M  V30 7 O -1.13008 1.05198 -1.44761 0
M  V30 8 C 0.996592 0.174799 -0.190133 0
M  V30 9 C 1.4944 -0.0693918 1.04506 0
M  V30 10 C 2.84887 -0.198987 1.30676 0
M  V30 11 C 3.74744 -0.0444259 0.303651 0
M  V30 12 N 5.16433 -0.259557 0.46545 0
M  V30 13 C 3.28831 0.210957 -1.02 0
M  V30 14 C 1.93099 0.318895 -1.24483 0
M  V30 15 H -5.70404 -0.592931 -0.373496 0
M  V30 16 H -4.66097 -1.86471 0.134974 0
M  V30 17 H -3.0123 -0.557292 -1.32922 0
M  V30 18 H -4.01875 0.847887 -1.00502 0
M  V30 19 H -3.10813 1.00803 1.25616 0
M  V30 20 H -3.46757 -0.669381 1.42228 0
M  V30 21 H -1.10536 0.165837 1.50507 0
M  V30 22 H 0.839098 -0.229972 1.89158 0
M  V30 23 H 3.21732 -0.459665 2.31162 0
M  V30 24 H 5.75197 0.578331 0.480354 0
M  V30 25 H 5.5503 -1.21802 0.438373 0
M  V30 26 H 3.98179 0.125155 -1.83008 0
M  V30 27 H 1.58754 0.397274 -2.25471 0
M  V30 END ATOM
M  V30 BEGIN BOND
M  V30 1 1 1 2
M  V30 2 1 2 3
M  V30 3 1 3 4
M  V30 4 1 4 5
M  V30 5 2 5 6
M  V30 6 2 5 7
M  V30 7 1 5 8
M  V30 8 2 8 9
M  V30 9 1 9 10
M  V30 10 2 10 11
M  V30 11 1 11 12
M  V30 12 1 11 13
M  V30 13 2 13 14
M  V30 14 1 14 8
M  V30 15 1 1 15
M  V30 16 1 1 16
M  V30 17 1 2 17
M  V30 18 1 2 18
M  V30 19 1 3 19
M  V30 20 1 3 20
M  V30 21 1 4 21
M  V30 22 1 9 22
M  V30 23 1 10 23
M  V30 24 1 12 24
M  V30 25 1 12 25
M  V30 26 1 13 26
M  V30 27 1 14 27
M  V30 END BOND
M  V30 END CTAB
M  END
