
     RDKit          3D

  0  0  0  0  0  0  0  0  0  0999 V3000
M  V30 BEGIN CTAB
M  V30 COUNTS 32 32 0 0 0
M  V30 BEGIN ATOM
M  V30 1 N -1.5119 2.37367 -0.856037 0
M  V30 2 N -1.57721 1.04707 -0.935744 0
M  V30 3 C -1.11252 0.203753 0.124964 0
M  V30 4 C 0.320592 0.427778 0.331902 0
M  V30 5 C 1.25542 -0.327166 -0.347468 0
M  V30 6 C 2.61599 -0.0824575 -0.206264 0
M  V30 7 C 3.6359 -0.886782 -0.924369 0
M  V30 8 C 3.00078 0.932017 0.62835 0
M  V30 9 N 2.09626 1.67479 1.29675 0
M  V30 10 C 0.761177 1.43099 1.15669 0
M  V30 11 N -0.178816 2.18981 1.90193 0
M  V30 12 C -1.38461 -1.24872 -0.325864 0
M  V30 13 C -2.91075 -1.31065 -0.530951 0
M  V30 14 C -1.01355 -2.14333 0.810271 0
M  V30 15 H -0.586579 2.8572 -0.96445 0
M  V30 16 H -2.20748 2.81446 -1.50556 0
M  V30 17 H -1.67948 0.591332 -1.85289 0
M  V30 18 H -1.70629 0.370583 1.02991 0
M  V30 19 H 1.01083 -1.1322 -1.01434 0
M  V30 20 H 4.4109 -0.18281 -1.3072 0
M  V30 21 H 4.07973 -1.61886 -0.220657 0
M  V30 22 H 3.15391 -1.47378 -1.71817 0
M  V30 23 H 4.07794 1.12171 0.732397 0
M  V30 24 H -1.07114 1.83256 2.28759 0
M  V30 25 H 0.0395016 3.19026 2.08303 0
M  V30 26 H -0.89484 -1.52109 -1.25242 0
M  V30 27 H -3.39292 -1.0362 0.428476 0
M  V30 28 H -3.0997 -2.35917 -0.831205 0
M  V30 29 H -3.23693 -0.585105 -1.29395 0
M  V30 30 H -1.55588 -3.11975 0.650359 0
M  V30 31 H -1.40198 -1.71982 1.78295 0
M  V30 32 H 0.0636649 -2.31012 0.841967 0
M  V30 END ATOM
M  V30 BEGIN BOND
M  V30 1 1 1 2
M  V30 2 1 2 3
M  V30 3 1 3 4
M  V30 4 2 4 5
M  V30 5 1 5 6
M  V30 6 1 6 7
M  V30 7 2 6 8
M  V30 8 1 8 9
M  V30 9 2 9 10
M  V30 10 1 10 11
M  V30 11 1 3 12
M  V30 12 1 12 13
M  V30 13 1 12 14
M  V30 14 1 10 4
M  V30 15 1 1 15
M  V30 16 1 1 16
M  V30 17 1 2 17
M  V30 18 1 3 18
M  V30 19 1 5 19
M  V30 20 1 7 20
M  V30 21 1 7 21
M  V30 22 1 7 22
M  V30 23 1 8 23
M  V30 24 1 11 24
M  V30 25 1 11 25
M  V30 26 1 12 26
M  V30 27 1 13 27
M  V30 28 1 13 28
M  V30 29 1 13 29
M  V30 30 1 14 30
M  V30 31 1 14 31
M  V30 32 1 14 32
M  V30 END BOND
M  V30 END CTAB
M  END
