
     RDKit          3D

  0  0  0  0  0  0  0  0  0  0999 V3000
M  V30 BEGIN CTAB
M  V30 COUNTS 22 22 0 0 0
M  V30 BEGIN ATOM
M  V30 1 N -2.10828 -1.92887 -0.576768 0
M  V30 2 C -1.35336 -0.768202 -0.311246 0
M  V30 3 C -0.00686256 -0.79723 -0.634114 0
M  V30 4 C 0.761542 0.322236 -0.387344 0
M  V30 5 C 0.17648 1.44068 0.172504 0
M  V30 6 C -1.15978 1.49273 0.501732 0
M  V30 7 C -1.92102 0.370832 0.252384 0
M  V30 8 N -3.30256 0.372187 0.572841 0
M  V30 9 Br -1.93901 3.06991 1.28059 0
M  V30 10 S 2.46351 0.302196 -0.789128 0
M  V30 11 O 2.95624 1.65629 -1.18563 0
M  V30 12 O 2.71245 -0.66131 -1.90787 0
M  V30 13 C 3.32415 -0.298335 0.661004 0
M  V30 14 F 3.07519 0.553618 1.7252 0
M  V30 15 F 2.82024 -1.57581 0.903929 0
M  V30 16 F 4.66084 -0.298443 0.399568 0
M  V30 17 H -2.75856 -1.95536 -1.37999 0
M  V30 18 H -2.02063 -2.76505 0.0271794 0
M  V30 19 H 0.480578 -1.65647 -1.07299 0
M  V30 20 H 0.779196 2.33518 0.37232 0
M  V30 21 H -3.81001 -0.472686 0.883365 0
M  V30 22 H -3.83033 1.26192 0.492459 0
M  V30 END ATOM
M  V30 BEGIN BOND
M  V30 1 1 1 2
M  V30 2 2 2 3
M  V30 3 1 3 4
M  V30 4 2 4 5
M  V30 5 1 5 6
M  V30 6 2 6 7
M  V30 7 1 7 8
M  V30 8 1 6 9
M  V30 9 1 4 10
M  V30 10 2 10 11
M  V30 11 2 10 12
M  V30 12 1 10 13
M  V30 13 1 13 14
M  V30 14 1 13 15
M  V30 15 1 13 16
M  V30 16 1 7 2
M  V30 17 1 1 17
M  V30 18 1 1 18
M  V30 19 1 3 19
M  V30 20 1 5 20
M  V30 21 1 8 21
M  V30 22 1 8 22
M  V30 END BOND
M  V30 END CTAB
M  END
