
     RDKit          3D

  0  0  0  0  0  0  0  0  0  0999 V3000
M  V30 BEGIN CTAB
M  V30 COUNTS 47 48 0 0 0
M  V30 BEGIN ATOM
M  V30 1 C 1.50092 -2.95826 -1.89183 0
M  V30 2 O 0.368387 -2.17079 -1.51796 0
M  V30 3 C 0.502336 -0.874533 -1.08168 0
M  V30 4 C -0.628007 -0.160552 -0.736686 0
M  V30 5 O -1.88506 -0.74835 -0.830148 0
M  V30 6 C -3.07682 -0.102403 -0.504954 0
M  V30 7 C -4.22847 -1.02582 -0.719206 0
M  V30 8 C -5.5609 -0.397468 -0.387622 0
M  V30 9 C -6.6835 -1.39858 -0.628663 0
M  V30 10 C -5.86082 0.804308 -1.23616 0
M  V30 11 C -0.446139 1.13214 -0.306274 0
M  V30 12 C 0.820585 1.70634 -0.21824 0
M  V30 13 C 1.95469 1.00647 -0.55807 0
M  V30 14 C 3.33785 1.53215 -0.480211 0
M  V30 15 C 4.11599 1.04409 0.669847 0
M  V30 16 C 5.07635 0.0363607 0.514112 0
M  V30 17 N 5.78163 -0.412717 1.56527 0
M  V30 18 C 5.60128 0.0789456 2.80564 0
M  V30 19 N 6.35448 -0.403263 3.92121 0
M  V30 20 N 4.68782 1.04518 2.98382 0
M  V30 21 C 3.94761 1.531 1.93833 0
M  V30 22 N 3.01202 2.55891 2.23032 0
M  V30 23 C 1.75604 -0.306658 -0.994545 0
M  V30 24 H 1.22052 -3.98136 -2.15157 0
M  V30 25 H 2.22594 -2.91577 -1.05561 0
M  V30 26 H 2.01121 -2.471 -2.75483 0
M  V30 27 H -3.18955 0.74417 -1.24522 0
M  V30 28 H -3.07689 0.365923 0.492213 0
M  V30 29 H -4.10784 -1.89451 -0.0212171 0
M  V30 30 H -4.21713 -1.37361 -1.75413 0
M  V30 31 H -5.60214 -0.0945338 0.677008 0
M  V30 32 H -6.832 -1.55421 -1.73156 0
M  V30 33 H -7.64823 -1.02148 -0.235876 0
M  V30 34 H -6.43545 -2.37902 -0.159432 0
M  V30 35 H -5.06095 1.54403 -1.27102 0
M  V30 36 H -6.77821 1.28392 -0.790665 0
M  V30 37 H -6.19251 0.442425 -2.23915 0
M  V30 38 H -1.33266 1.69237 -0.0355757 0
M  V30 39 H 0.919497 2.73852 0.117901 0
M  V30 40 H 3.89374 1.24743 -1.42393 0
M  V30 41 H 3.34058 2.66268 -0.532153 0
M  V30 42 H 5.21016 -0.347431 -0.482305 0
M  V30 43 H 6.13474 -1.35402 4.27261 0
M  V30 44 H 7.094 0.172974 4.36547 0
M  V30 45 H 2.11393 2.2848 2.67705 0
M  V30 46 H 3.20381 3.55483 2.01128 0
M  V30 47 H 2.65717 -0.86363 -1.26557 0
M  V30 END ATOM
M  V30 BEGIN BOND
M  V30 1 1 1 2
M  V30 2 1 2 3
M  V30 3 2 3 4
M  V30 4 1 4 5
M  V30 5 1 5 6
M  V30 6 1 6 7
M  V30 7 1 7 8
M  V30 8 1 8 9
M  V30 9 1 8 10
M  V30 10 1 4 11
M  V30 11 2 11 12
M  V30 12 1 12 13
M  V30 13 1 13 14
M  V30 14 1 14 15
M  V30 15 2 15 16
M  V30 16 1 16 17
M  V30 17 2 17 18
M  V30 18 1 18 19
M  V30 19 1 18 20
M  V30 20 2 20 21
M  V30 21 1 21 22
M  V30 22 2 13 23
M  V30 23 1 23 3
M  V30 24 1 21 15
M  V30 25 1 1 24
M  V30 26 1 1 25
M  V30 27 1 1 26
M  V30 28 1 6 27
M  V30 29 1 6 28
M  V30 30 1 7 29
M  V30 31 1 7 30
M  V30 32 1 8 31
M  V30 33 1 9 32
M  V30 34 1 9 33
M  V30 35 1 9 34
M  V30 36 1 10 35
M  V30 37 1 10 36
M  V30 38 1 10 37
M  V30 39 1 11 38
M  V30 40 1 12 39
M  V30 41 1 14 40
M  V30 42 1 14 41
M  V30 43 1 16 42
M  V30 44 1 19 43
M  V30 45 1 19 44
M  V30 46 1 22 45
M  V30 47 1 22 46
M  V30 48 1 23 47
M  V30 END BOND
M  V30 END CTAB
M  END
