
     RDKit          3D

  0  0  0  0  0  0  0  0  0  0999 V3000
M  V30 BEGIN CTAB
M  V30 COUNTS 29 29 0 0 0
M  V30 BEGIN ATOM
M  V30 1 N 3.75765 0.677438 0.531124 0
M  V30 2 C 2.41192 0.976932 0.00474826 0
M  V30 3 C 1.97613 -0.108806 -0.955759 0
M  V30 4 S 0.404025 0.0724458 -1.69661 0
M  V30 5 C -1.06892 -0.0506962 -0.805455 0
M  V30 6 C -1.3946 -1.40588 -0.206483 0
M  V30 7 C -2.78068 -1.04198 0.360835 0
M  V30 8 C -2.35281 0.126988 1.23943 0
M  V30 9 C -1.38935 0.879453 0.302948 0
M  V30 10 N -2.1641 2.0306 -0.172308 0
M  V30 11 C 2.19527 -1.49072 -0.31039 0
M  V30 12 H 3.83971 1.27525 1.39916 0
M  V30 13 H 4.48733 1.08264 -0.131803 0
M  V30 14 H 2.52086 1.95025 -0.498185 0
M  V30 15 H 1.73303 0.961514 0.867025 0
M  V30 16 H 2.74809 -0.0971428 -1.78653 0
M  V30 17 H -1.92316 0.103975 -1.55598 0
M  V30 18 H -1.49906 -2.19515 -0.953799 0
M  V30 19 H -0.797744 -1.65493 0.678048 0
M  V30 20 H -3.19196 -1.88511 0.904711 0
M  V30 21 H -3.41938 -0.612062 -0.434002 0
M  V30 22 H -1.80724 -0.246825 2.14434 0
M  V30 23 H -3.19152 0.747327 1.55349 0
M  V30 24 H -0.574446 1.26277 0.898941 0
M  V30 25 H -3.07692 2.13239 0.277147 0
M  V30 26 H -2.31726 1.97066 -1.19145 0
M  V30 27 H 3.28592 -1.70879 -0.251516 0
M  V30 28 H 1.753 -2.25475 -0.951398 0
M  V30 29 H 1.83621 -1.49778 0.739726 0
M  V30 END ATOM
M  V30 BEGIN BOND
M  V30 1 1 1 2
M  V30 2 1 2 3
M  V30 3 1 3 4
M  V30 4 1 4 5
M  V30 5 1 5 6
M  V30 6 1 6 7
M  V30 7 1 7 8
M  V30 8 1 8 9
M  V30 9 1 9 10
M  V30 10 1 3 11
M  V30 11 1 9 5
M  V30 12 1 1 12
M  V30 13 1 1 13
M  V30 14 1 2 14
M  V30 15 1 2 15
M  V30 16 1 3 16
M  V30 17 1 5 17
M  V30 18 1 6 18
M  V30 19 1 6 19
M  V30 20 1 7 20
M  V30 21 1 7 21
M  V30 22 1 8 22
M  V30 23 1 8 23
M  V30 24 1 9 24
M  V30 25 1 10 25
M  V30 26 1 10 26
M  V30 27 1 11 27
M  V30 28 1 11 28
M  V30 29 1 11 29
M  V30 END BOND
M  V30 END CTAB
M  END
