
     RDKit          3D

  0  0  0  0  0  0  0  0  0  0999 V3000
M  V30 BEGIN CTAB
M  V30 COUNTS 56 59 0 0 0
M  V30 BEGIN ATOM
M  V30 1 N -4.99932 3.88955 -0.767695 0
M  V30 2 C -3.861 3.72489 -0.671048 0
M  V30 3 C -2.42085 3.53773 -0.536577 0
M  V30 4 C -1.65957 4.68673 -0.634951 0
M  V30 5 N -2.2318 5.95878 -0.850883 0
M  V30 6 N -0.339324 4.48442 -0.507466 0
M  V30 7 C 0.206386 3.24682 -0.298156 0
M  V30 8 C -0.528144 2.09417 -0.197325 0
M  V30 9 C -1.90789 2.28651 -0.327865 0
M  V30 10 C -2.86372 1.20399 -0.254883 0
M  V30 11 C -3.27165 0.687497 -1.48624 0
M  V30 12 C -4.19263 -0.329848 -1.46323 0
M  V30 13 C -4.73298 -0.866772 -0.319961 0
M  V30 14 C -4.29773 -0.321815 0.8778 0
M  V30 15 C -3.37818 0.697471 0.921268 0
M  V30 16 C -5.7277 -1.96971 -0.355286 0
M  V30 17 C -7.01414 -1.40918 0.252945 0
M  V30 18 C -5.25984 -3.20269 0.345649 0
M  V30 19 C 0.164765 0.948332 0.00992399 0
M  V30 20 N -0.456531 -0.358846 0.138965 0
M  V30 21 C 1.52146 1.04575 0.0988659 0
M  V30 22 S 1.81314 2.70802 -0.104208 0
M  V30 23 C 2.5114 -0.0540849 0.322388 0
M  V30 24 O 2.07503 -1.21326 0.446844 0
M  V30 25 N 3.85061 0.34768 0.368374 0
M  V30 26 C 4.96536 -0.474828 0.563931 0
M  V30 27 C 6.24212 0.104552 0.56342 0
M  V30 28 C 7.39364 -0.625106 0.748435 0
M  V30 29 C 7.31072 -1.97996 0.943404 0
M  V30 30 C 6.07015 -2.57654 0.948869 0
M  V30 31 C 4.90676 -1.82161 0.759428 0
M  V30 32 O 8.48279 -2.70511 1.12896 0
M  V30 33 C 9.1765 -3.26235 0.0263726 0
M  V30 34 F 9.5697 -2.2674 -0.859515 0
M  V30 35 F 10.3074 -3.90389 0.483168 0
M  V30 36 F 8.38965 -4.15475 -0.674881 0
M  V30 37 H -2.45374 6.34508 -1.79938 0
M  V30 38 H -2.43998 6.53693 0.00811313 0
M  V30 39 H -2.87237 1.07978 -2.42805 0
M  V30 40 H -4.53794 -0.762321 -2.41218 0
M  V30 41 H -4.6965 -0.713433 1.80858 0
M  V30 42 H -3.01237 1.15022 1.8335 0
M  V30 43 H -5.89399 -2.22752 -1.43326 0
M  V30 44 H -7.77099 -2.19785 0.407077 0
M  V30 45 H -6.71751 -0.945616 1.21691 0
M  V30 46 H -7.39751 -0.648499 -0.478703 0
M  V30 47 H -5.78706 -3.38043 1.31964 0
M  V30 48 H -4.16742 -3.14227 0.617264 0
M  V30 49 H -5.36373 -4.09872 -0.285212 0
M  V30 50 H -0.632875 -0.749838 1.07955 0
M  V30 51 H -0.701249 -0.871283 -0.708215 0
M  V30 52 H 4.00123 1.40844 0.235786 0
M  V30 53 H 6.30603 1.17097 0.409935 0
M  V30 54 H 8.34418 -0.0987798 0.734143 0
M  V30 55 H 5.9862 -3.63226 1.09944 0
M  V30 56 H 3.99295 -2.37773 0.78123 0
M  V30 END ATOM
M  V30 BEGIN BOND
M  V30 1 3 1 2
M  V30 2 1 2 3
M  V30 3 2 3 4
M  V30 4 1 4 5
M  V30 5 1 4 6
M  V30 6 2 6 7
M  V30 7 1 7 8
M  V30 8 2 8 9
M  V30 9 1 9 10
M  V30 10 2 10 11
M  V30 11 1 11 12
M  V30 12 2 12 13
M  V30 13 1 13 14
M  V30 14 2 14 15
M  V30 15 1 13 16
M  V30 16 1 16 17
M  V30 17 1 16 18
M  V30 18 1 8 19
M  V30 19 1 19 20
M  V30 20 2 19 21
M  V30 21 1 21 22
M  V30 22 1 21 23
M  V30 23 2 23 24
M  V30 24 1 23 25
M  V30 25 1 25 26
M  V30 26 2 26 27
M  V30 27 1 27 28
M  V30 28 2 28 29
M  V30 29 1 29 30
M  V30 30 2 30 31
M  V30 31 1 29 32
M  V30 32 1 32 33
M  V30 33 1 33 34
M  V30 34 1 33 35
M  V30 35 1 33 36
M  V30 36 1 9 3
M  V30 37 1 15 10
M  V30 38 1 31 26
M  V30 39 1 22 7
M  V30 40 1 5 37
M  V30 41 1 5 38
M  V30 42 1 11 39
M  V30 43 1 12 40
M  V30 44 1 14 41
M  V30 45 1 15 42
M  V30 46 1 16 43
M  V30 47 1 17 44
M  V30 48 1 17 45
M  V30 49 1 17 46
M  V30 50 1 18 47
M  V30 51 1 18 48
M  V30 52 1 18 49
M  V30 53 1 20 50
M  V30 54 1 20 51
M  V30 55 1 25 52
M  V30 56 1 27 53
M  V30 57 1 28 54
M  V30 58 1 30 55
M  V30 59 1 31 56
M  V30 END BOND
M  V30 END CTAB
M  END
