
     RDKit          3D

  0  0  0  0  0  0  0  0  0  0999 V3000
M  V30 BEGIN CTAB
M  V30 COUNTS 43 45 0 0 0
M  V30 BEGIN ATOM
M  V30 1 O 1.2592 -1.75522 0.984431 0
M  V30 2 C 1.73778 -0.634655 0.712207 0
M  V30 3 N 0.896411 0.46143 0.38348 0
M  V30 4 C -0.53963 0.28525 0.355862 0
M  V30 5 S -1.40906 -1.17373 0.695957 0
M  V30 6 C -2.98376 -0.574466 0.455008 0
M  V30 7 C -2.74475 0.731257 0.12335 0
M  V30 8 N -1.50679 1.12571 0.0834829 0
M  V30 9 S -4.07592 1.88125 -0.238757 0
M  V30 10 O -4.01593 3.05429 0.688483 0
M  V30 11 O -3.85028 2.33132 -1.66418 0
M  V30 12 C -5.56356 1.03039 -0.130988 0
M  V30 13 C -6.1826 0.882493 1.1142 0
M  V30 14 C -7.36894 0.194857 1.25146 0
M  V30 15 C -7.98867 -0.373585 0.16301 0
M  V30 16 C -7.39634 -0.239313 -1.07515 0
M  V30 17 C -6.20601 0.452291 -1.20533 0
M  V30 18 N -9.22928 -1.09243 0.315785 0 CHG=1
M  V30 19 O -9.74133 -1.21072 1.44702 0
M  V30 20 O -9.87427 -1.66414 -0.74385 0 CHG=-1
M  V30 21 C 3.19868 -0.414201 0.723165 0
M  V30 22 S 3.8484 -0.286712 -0.994141 0
M  V30 23 C 5.6232 -0.17916 -0.820437 0
M  V30 24 N 6.28008 -1.35744 -0.820538 0
M  V30 25 C 7.60878 -1.4495 -0.691701 0
M  V30 26 N 8.26288 -2.71075 -0.693884 0
M  V30 27 C 8.33681 -0.29425 -0.554036 0
M  V30 28 C 7.6716 0.90876 -0.554267 0
M  V30 29 N 6.31505 0.942261 -0.689297 0
M  V30 30 N 8.42096 2.09915 -0.404295 0
M  V30 31 H 1.25249 1.39969 0.153439 0
M  V30 32 H -3.96577 -1.08078 0.541707 0
M  V30 33 H -5.68864 1.33241 1.97204 0
M  V30 34 H -7.83783 0.0909851 2.23548 0
M  V30 35 H -7.87205 -0.68168 -1.95577 0
M  V30 36 H -5.77602 0.538792 -2.18882 0
M  V30 37 H 3.68402 -1.34384 1.13602 0
M  V30 38 H 3.53871 0.422111 1.35062 0
M  V30 39 H 9.13881 -2.88439 -0.152408 0
M  V30 40 H 7.89739 -3.54275 -1.24842 0
M  V30 41 H 9.43396 -0.343583 -0.446419 0
M  V30 42 H 9.0754 2.42133 -1.14236 0
M  V30 43 H 8.33683 2.70127 0.460677 0
M  V30 END ATOM
M  V30 BEGIN BOND
M  V30 1 2 1 2
M  V30 2 1 2 3
M  V30 3 1 3 4
M  V30 4 1 4 5
M  V30 5 1 5 6
M  V30 6 2 6 7
M  V30 7 1 7 8
M  V30 8 1 7 9
M  V30 9 2 9 10
M  V30 10 2 9 11
M  V30 11 1 9 12
M  V30 12 2 12 13
M  V30 13 1 13 14
M  V30 14 2 14 15
M  V30 15 1 15 16
M  V30 16 2 16 17
M  V30 17 1 15 18
M  V30 18 2 18 19
M  V30 19 1 18 20
M  V30 20 1 2 21
M  V30 21 1 21 22
M  V30 22 1 22 23
M  V30 23 2 23 24
M  V30 24 1 24 25
M  V30 25 1 25 26
M  V30 26 2 25 27
M  V30 27 1 27 28
M  V30 28 2 28 29
M  V30 29 1 28 30
M  V30 30 2 8 4
M  V30 31 1 17 12
M  V30 32 1 29 23
M  V30 33 1 3 31
M  V30 34 1 6 32
M  V30 35 1 13 33
M  V30 36 1 14 34
M  V30 37 1 16 35
M  V30 38 1 17 36
M  V30 39 1 21 37
M  V30 40 1 21 38
M  V30 41 1 26 39
M  V30 42 1 26 40
M  V30 43 1 27 41
M  V30 44 1 30 42
M  V30 45 1 30 43
M  V30 END BOND
M  V30 END CTAB
M  END
