
     RDKit          3D

  0  0  0  0  0  0  0  0  0  0999 V3000
M  V30 BEGIN CTAB
M  V30 COUNTS 29 29 0 0 0
M  V30 BEGIN ATOM
M  V30 1 C 5.05358 0.837273 0.15528 0
M  V30 2 O 3.99821 0.346775 0.995106 0
M  V30 3 C 2.70115 0.23539 0.551053 0
M  V30 4 O 2.44428 0.574265 -0.621932 0
M  V30 5 C 1.64628 -0.266216 1.42542 0
M  V30 6 C 0.315158 -0.321984 0.781492 0
M  V30 7 C -0.682292 0.581147 1.01347 0
M  V30 8 C -1.94331 0.515858 0.385938 0
M  V30 9 O -2.8052 1.48538 0.730304 0
M  V30 10 C -4.08741 1.85541 0.427196 0
M  V30 11 F -4.41837 3.0294 1.16508 0
M  V30 12 F -5.06584 0.912349 0.759295 0
M  V30 13 F -4.27224 2.26249 -0.894953 0
M  V30 14 C -2.16264 -0.510458 -0.496905 0
M  V30 15 C -1.13439 -1.43136 -0.727863 0
M  V30 16 C 0.0862662 -1.34811 -0.105349 0
M  V30 17 N 1.07987 -2.33045 -0.396559 0
M  V30 18 N -3.39765 -0.687318 -1.20153 0
M  V30 19 H 4.56034 1.52004 -0.582563 0
M  V30 20 H 5.51562 0.0250307 -0.441037 0
M  V30 21 H 5.77272 1.45424 0.705318 0
M  V30 22 H 1.90415 -1.32665 1.69063 0
M  V30 23 H 1.59678 0.267703 2.4146 0
M  V30 24 H -0.453227 1.37191 1.72211 0
M  V30 25 H -1.34397 -2.22375 -1.42664 0
M  V30 26 H 1.35587 -2.46403 -1.37226 0
M  V30 27 H 1.46347 -2.85454 0.417695 0
M  V30 28 H -3.558 -0.220027 -2.12582 0
M  V30 29 H -4.16923 -1.28977 -0.831841 0
M  V30 END ATOM
M  V30 BEGIN BOND
M  V30 1 1 1 2
M  V30 2 1 2 3
M  V30 3 2 3 4
M  V30 4 1 3 5
M  V30 5 1 5 6
M  V30 6 2 6 7
M  V30 7 1 7 8
M  V30 8 1 8 9
M  V30 9 1 9 10
M  V30 10 1 10 11
M  V30 11 1 10 12
M  V30 12 1 10 13
M  V30 13 2 8 14
M  V30 14 1 14 15
M  V30 15 2 15 16
M  V30 16 1 16 17
M  V30 17 1 14 18
M  V30 18 1 16 6
M  V30 19 1 1 19
M  V30 20 1 1 20
M  V30 21 1 1 21
M  V30 22 1 5 22
M  V30 23 1 5 23
M  V30 24 1 7 24
M  V30 25 1 15 25
M  V30 26 1 17 26
M  V30 27 1 17 27
M  V30 28 1 18 28
M  V30 29 1 18 29
M  V30 END BOND
M  V30 END CTAB
M  END
