
     RDKit          3D

  0  0  0  0  0  0  0  0  0  0999 V3000
M  V30 BEGIN CTAB
M  V30 COUNTS 41 43 0 0 0
M  V30 BEGIN ATOM
M  V30 1 N -7.73512 -0.825839 1.86626 0
M  V30 2 C -6.3718 -0.690735 1.48252 0
M  V30 3 C -6.05086 -0.94494 0.167578 0
M  V30 4 C -4.75232 -0.829849 -0.256145 0
M  V30 5 C -3.78564 -0.459947 0.645385 0
M  V30 6 N -2.43623 -0.33317 0.23582 0
M  V30 7 N -2.18265 0.601077 -0.605274 0
M  V30 8 C -0.832051 0.762224 -1.04395 0
M  V30 9 C -0.334628 0.0380214 -2.09845 0
M  V30 10 C 0.95582 0.16547 -2.54782 0
M  V30 11 C 1.79682 1.06973 -1.90485 0
M  V30 12 C 1.28955 1.78753 -0.853129 0
M  V30 13 C -0.00969021 1.65165 -0.40931 0
M  V30 14 S 3.41686 1.26446 -2.49795 0
M  V30 15 O 3.42442 1.51608 -3.99256 0
M  V30 16 O 3.99758 2.55639 -1.91022 0
M  V30 17 N 4.49368 0.019003 -2.06723 0
M  V30 18 C 4.90613 -0.361569 -0.795354 0
M  V30 19 N 5.76161 -1.42855 -0.694071 0
M  V30 20 C 6.24232 -1.86908 0.474702 0
M  V30 21 C 5.90779 -1.27539 1.66869 0
M  V30 22 C 5.0543 -0.200849 1.63321 0
M  V30 23 C 4.56935 0.235224 0.391539 0
M  V30 24 C -4.0999 -0.205301 1.9575 0
M  V30 25 N -3.13344 0.179797 2.92426 0
M  V30 26 N -5.40583 -0.333664 2.32961 0
M  V30 27 H -8.20903 -1.74596 1.68918 0
M  V30 28 H -8.29208 -0.0654455 2.31304 0
M  V30 29 H -6.82199 -1.23676 -0.537649 0
M  V30 30 H -4.54729 -1.04089 -1.30445 0
M  V30 31 H -1.00566 -0.666709 -2.59235 0
M  V30 32 H 1.35415 -0.409131 -3.38617 0
M  V30 33 H 1.98154 2.49627 -0.364321 0
M  V30 34 H -0.346769 2.23587 0.411772 0
M  V30 35 H 4.894 -0.530694 -2.89464 0
M  V30 36 H 6.91493 -2.71794 0.484818 0
M  V30 37 H 6.28057 -1.61057 2.62347 0
M  V30 38 H 4.73878 0.323377 2.50907 0
M  V30 39 H 3.91688 1.08888 0.387391 0
M  V30 40 H -3.14124 1.11782 3.36774 0
M  V30 41 H -2.40288 -0.494072 3.19232 0
M  V30 END ATOM
M  V30 BEGIN BOND
M  V30 1 1 1 2
M  V30 2 2 2 3
M  V30 3 1 3 4
M  V30 4 2 4 5
M  V30 5 1 5 6
M  V30 6 2 6 7
M  V30 7 1 7 8
M  V30 8 2 8 9
M  V30 9 1 9 10
M  V30 10 2 10 11
M  V30 11 1 11 12
M  V30 12 2 12 13
M  V30 13 1 11 14
M  V30 14 2 14 15
M  V30 15 2 14 16
M  V30 16 1 14 17
M  V30 17 1 17 18
M  V30 18 2 18 19
M  V30 19 1 19 20
M  V30 20 2 20 21
M  V30 21 1 21 22
M  V30 22 2 22 23
M  V30 23 1 5 24
M  V30 24 1 24 25
M  V30 25 2 24 26
M  V30 26 1 26 2
M  V30 27 1 13 8
M  V30 28 1 23 18
M  V30 29 1 1 27
M  V30 30 1 1 28
M  V30 31 1 3 29
M  V30 32 1 4 30
M  V30 33 1 9 31
M  V30 34 1 10 32
M  V30 35 1 12 33
M  V30 36 1 13 34
M  V30 37 1 17 35
M  V30 38 1 20 36
M  V30 39 1 21 37
M  V30 40 1 22 38
M  V30 41 1 23 39
M  V30 42 1 25 40
M  V30 43 1 25 41
M  V30 END BOND
M  V30 END CTAB
M  END
