
     RDKit          3D

  0  0  0  0  0  0  0  0  0  0999 V3000
M  V30 BEGIN CTAB
M  V30 COUNTS 26 28 0 0 0
M  V30 BEGIN ATOM
M  V30 1 N 4.83347 1.14552 0.0812703 0
M  V30 2 C 3.45718 0.787622 0.0974474 0
M  V30 3 C 3.00509 -0.366774 0.68472 0
M  V30 4 C 1.67017 -0.751513 0.721507 0
M  V30 5 C 0.743431 0.0358802 0.155173 0
M  V30 6 C 1.18617 1.22977 -0.455524 0
M  V30 7 C 2.50941 1.59775 -0.484472 0
M  V30 8 C -0.695011 -0.274133 0.136144 0
M  V30 9 C -1.30105 -1.36764 0.668596 0
M  V30 10 S -0.559252 -2.7365 1.53653 0
M  V30 11 S 1.48119 -2.31753 1.57511 0
M  V30 12 C -2.6743 -1.50069 0.558975 0
M  V30 13 C -3.4974 -0.592232 -0.0614127 0
M  V30 14 N -4.90764 -0.795948 -0.136331 0
M  V30 15 C -2.90036 0.509418 -0.599643 0
M  V30 16 C -1.51685 0.671981 -0.50521 0
M  V30 17 H 5.54445 0.459394 -0.190511 0
M  V30 18 H 5.09629 2.10705 0.348314 0
M  V30 19 H 3.79478 -0.986681 1.13866 0
M  V30 20 H 0.514713 1.91135 -0.928204 0
M  V30 21 H 2.86582 2.50797 -0.947529 0
M  V30 22 H -3.17592 -2.36864 0.978835 0
M  V30 23 H -5.39101 -0.463374 -1.00207 0
M  V30 24 H -5.42196 -1.25257 0.634519 0
M  V30 25 H -3.52329 1.24189 -1.09438 0
M  V30 26 H -1.13814 1.56864 -0.957678 0
M  V30 END ATOM
M  V30 BEGIN BOND
M  V30 1 1 1 2
M  V30 2 2 2 3
M  V30 3 1 3 4
M  V30 4 2 4 5
M  V30 5 1 5 6
M  V30 6 2 6 7
M  V30 7 1 5 8
M  V30 8 2 8 9
M  V30 9 1 9 10
M  V30 10 1 10 11
M  V30 11 1 9 12
M  V30 12 2 12 13
M  V30 13 1 13 14
M  V30 14 1 13 15
M  V30 15 2 15 16
M  V30 16 1 7 2
M  V30 17 1 16 8
M  V30 18 1 11 4
M  V30 19 1 1 17
M  V30 20 1 1 18
M  V30 21 1 3 19
M  V30 22 1 6 20
M  V30 23 1 7 21
M  V30 24 1 12 22
M  V30 25 1 14 23
M  V30 26 1 14 24
M  V30 27 1 15 25
M  V30 28 1 16 26
M  V30 END BOND
M  V30 END CTAB
M  END
