
     RDKit          3D

  0  0  0  0  0  0  0  0  0  0999 V3000
M  V30 BEGIN CTAB
M  V30 COUNTS 33 33 0 0 0
M  V30 BEGIN ATOM
M  V30 1 N -2.37152 -1.98447 -0.667394 0
M  V30 2 C -2.88495 -0.710979 -0.280058 0
M  V30 3 C -1.87118 0.220016 0.334447 0
M  V30 4 C -2.64648 1.50399 0.672073 0
M  V30 5 C -1.21997 -0.322052 1.54492 0
M  V30 6 C 0.23702 -0.544602 1.20563 0
M  V30 7 N 0.462857 0.156822 0.00700606 0
M  V30 8 C -0.740501 0.571156 -0.603424 0
M  V30 9 C 1.55551 1.07007 -0.00434344 0
M  V30 10 C 2.92416 0.447918 0.00532803 0
M  V30 11 N 3.19278 -0.379624 1.13911 0
M  V30 12 C 3.20581 -0.333686 -1.25832 0
M  V30 13 H -2.52756 -2.73413 0.046667 0
M  V30 14 H -2.56146 -2.27669 -1.62811 0
M  V30 15 H -3.3348 -0.169685 -1.1502 0
M  V30 16 H -3.71566 -0.794187 0.471556 0
M  V30 17 H -2.05864 2.03125 1.41692 0
M  V30 18 H -3.65838 1.20427 1.00891 0
M  V30 19 H -2.69366 2.04469 -0.316162 0
M  V30 20 H -1.70954 -1.25234 1.90267 0
M  V30 21 H -1.24692 0.467204 2.33627 0
M  V30 22 H 0.462556 -1.63499 1.04202 0
M  V30 23 H 0.883471 -0.166063 2.05041 0
M  V30 24 H -0.726951 1.66455 -0.779236 0
M  V30 25 H -0.93126 0.11509 -1.60428 0
M  V30 26 H 1.45374 1.77744 0.880816 0
M  V30 27 H 1.47405 1.78346 -0.880523 0
M  V30 28 H 3.67204 1.30011 -0.00141331 0
M  V30 29 H 3.21377 -1.38709 0.880083 0
M  V30 30 H 4.10463 -0.100481 1.55892 0
M  V30 31 H 3.14203 0.315278 -2.1525 0
M  V30 32 H 2.62858 -1.24765 -1.3738 0
M  V30 33 H 4.28642 -0.634584 -1.18807 0
M  V30 END ATOM
M  V30 BEGIN BOND
M  V30 1 1 1 2
M  V30 2 1 2 3
M  V30 3 1 3 4
M  V30 4 1 3 5
M  V30 5 1 5 6
M  V30 6 1 6 7
M  V30 7 1 7 8
M  V30 8 1 7 9
M  V30 9 1 9 10
M  V30 10 1 10 11
M  V30 11 1 10 12
M  V30 12 1 8 3
M  V30 13 1 1 13
M  V30 14 1 1 14
M  V30 15 1 2 15
M  V30 16 1 2 16
M  V30 17 1 4 17
M  V30 18 1 4 18
M  V30 19 1 4 19
M  V30 20 1 5 20
M  V30 21 1 5 21
M  V30 22 1 6 22
M  V30 23 1 6 23
M  V30 24 1 8 24
M  V30 25 1 8 25
M  V30 26 1 9 26
M  V30 27 1 9 27
M  V30 28 1 10 28
M  V30 29 1 11 29
M  V30 30 1 11 30
M  V30 31 1 12 31
M  V30 32 1 12 32
M  V30 33 1 12 33
M  V30 END BOND
M  V30 END CTAB
M  END
