
     RDKit          3D

  0  0  0  0  0  0  0  0  0  0999 V3000
M  V30 BEGIN CTAB
M  V30 COUNTS 27 26 0 0 0
M  V30 BEGIN ATOM
M  V30 1 C -1.98715 -1.06654 -0.878212 0
M  V30 2 C -1.36771 -0.482699 0.346208 0
M  V30 3 C -2.30274 0.472289 1.02533 0
M  V30 4 C -2.74857 1.64824 0.235368 0
M  V30 5 C -0.0217088 0.159642 0.151908 0
M  V30 6 N 0.973613 -0.752639 -0.335278 0
M  V30 7 C 2.35854 -0.347631 -0.451452 0
M  V30 8 N 2.65672 0.875455 -0.183762 0
M  V30 9 N 3.92252 1.38885 -0.253376 0
M  V30 10 N 3.33146 -1.286 -0.841725 0
M  V30 11 O -1.24673 -1.56735 1.27089 0
M  V30 12 H -2.48237 -2.05285 -0.631214 0
M  V30 13 H -2.83847 -0.441199 -1.26103 0
M  V30 14 H -1.2633 -1.25426 -1.71276 0
M  V30 15 H -3.23242 -0.0721091 1.38086 0
M  V30 16 H -1.84271 0.878578 1.96532 0
M  V30 17 H -3.63787 2.07957 0.797052 0
M  V30 18 H -3.1103 1.45561 -0.770692 0
M  V30 19 H -2.03103 2.48974 0.221685 0
M  V30 20 H -0.159524 0.9909 -0.565127 0
M  V30 21 H 0.296253 0.554524 1.13634 0
M  V30 22 H 0.755301 -1.71602 -0.622834 0
M  V30 23 H 4.09551 2.41208 -0.0305919 0
M  V30 24 H 4.79551 0.876884 -0.512321 0
M  V30 25 H 3.12019 -2.27994 -1.05245 0
M  V30 26 H 4.32238 -1.00491 -0.932977 0
M  V30 27 H -0.355378 -1.95821 1.11146 0
M  V30 END ATOM
M  V30 BEGIN BOND
M  V30 1 1 1 2
M  V30 2 1 2 3
M  V30 3 1 3 4
M  V30 4 1 2 5
M  V30 5 1 5 6
M  V30 6 1 6 7
M  V30 7 2 7 8 CFG=2
M  V30 8 1 8 9
M  V30 9 1 7 10
M  V30 10 1 2 11
M  V30 11 1 1 12
M  V30 12 1 1 13
M  V30 13 1 1 14
M  V30 14 1 3 15
M  V30 15 1 3 16
M  V30 16 1 4 17
M  V30 17 1 4 18
M  V30 18 1 4 19
M  V30 19 1 5 20
M  V30 20 1 5 21
M  V30 21 1 6 22
M  V30 22 1 9 23
M  V30 23 1 9 24
M  V30 24 1 10 25
M  V30 25 1 10 26
M  V30 26 1 11 27
M  V30 END BOND
M  V30 END CTAB
M  END
