
     RDKit          3D

  0  0  0  0  0  0  0  0  0  0999 V3000
M  V30 BEGIN CTAB
M  V30 COUNTS 41 41 0 0 0
M  V30 BEGIN ATOM
M  V30 1 N -3.20659 3.26261 0.938747 0
M  V30 2 C -4.07849 2.1056 0.921205 0
M  V30 3 C -3.34457 0.901668 0.471076 0
M  V30 4 C -2.07294 0.899847 -0.0253167 0
M  V30 5 C -1.39287 -0.256769 -0.412689 0
M  V30 6 N -0.0979073 -0.150246 -0.97979 0
M  V30 7 C 0.978295 -1.0114 -0.842205 0
M  V30 8 O 0.781109 -2.03583 -0.0675 0
M  V30 9 C 2.2527 -0.815102 -1.51381 0 CFG=2
M  V30 10 C 3.49852 -0.767485 -0.743468 0
M  V30 11 C 3.74924 0.287485 0.250152 0
M  V30 12 C 5.16177 0.0593054 0.864592 0
M  V30 13 C 2.76549 0.414456 1.35828 0
M  V30 14 N 2.09211 0.436658 -2.30264 0
M  V30 15 C -2.06124 -1.44988 -0.280503 0
M  V30 16 C -3.35571 -1.47623 0.219551 0
M  V30 17 C -3.9996 -0.309285 0.594969 0
M  V30 18 C -4.09192 -2.75762 0.339654 0
M  V30 19 F -4.10224 -3.2056 1.6285 0
M  V30 20 F -5.42602 -2.50009 -0.0600963 0
M  V30 21 F -3.58034 -3.67903 -0.510452 0
M  V30 22 H -2.73935 3.4662 0.0748247 0
M  V30 23 H -3.69258 4.05978 1.33554 0
M  V30 24 H -4.90012 2.36201 0.22635 0
M  V30 25 H -4.44464 1.92526 1.9454 0
M  V30 26 H -1.5462 1.85151 -0.134768 0
M  V30 27 H 0.0588264 0.712327 -1.60414 0
M  V30 28 H 2.33107 -1.59557 -2.32959 0
M  V30 29 H 3.69428 -1.77873 -0.256453 0
M  V30 30 H 4.35367 -0.715296 -1.50239 0
M  V30 31 H 3.82553 1.3168 -0.223039 0
M  V30 32 H 5.21812 -0.906146 1.37042 0
M  V30 33 H 5.92003 0.18611 0.0425132 0
M  V30 34 H 5.36323 0.842972 1.62244 0
M  V30 35 H 2.7168 -0.523566 1.97543 0
M  V30 36 H 1.78525 0.714875 1.0067 0
M  V30 37 H 3.16482 1.19928 2.08974 0
M  V30 38 H 2.28787 1.25803 -1.68755 0
M  V30 39 H 2.73477 0.400435 -3.12649 0
M  V30 40 H -1.58344 -2.3619 -0.57084 0
M  V30 41 H -5.01674 -0.367426 0.980066 0
M  V30 END ATOM
M  V30 BEGIN BOND
M  V30 1 1 1 2
M  V30 2 1 2 3
M  V30 3 2 3 4
M  V30 4 1 4 5
M  V30 5 1 5 6
M  V30 6 1 6 7
M  V30 7 2 7 8
M  V30 8 1 7 9
M  V30 9 1 9 10
M  V30 10 1 10 11
M  V30 11 1 11 12
M  V30 12 1 11 13
M  V30 13 1 9 14
M  V30 14 2 5 15
M  V30 15 1 15 16
M  V30 16 2 16 17
M  V30 17 1 16 18
M  V30 18 1 18 19
M  V30 19 1 18 20
M  V30 20 1 18 21
M  V30 21 1 17 3
M  V30 22 1 1 22
M  V30 23 1 1 23
M  V30 24 1 2 24
M  V30 25 1 2 25
M  V30 26 1 4 26
M  V30 27 1 6 27
M  V30 28 1 9 28 CFG=3
M  V30 29 1 10 29
M  V30 30 1 10 30
M  V30 31 1 11 31
M  V30 32 1 12 32
M  V30 33 1 12 33
M  V30 34 1 12 34
M  V30 35 1 13 35
M  V30 36 1 13 36
M  V30 37 1 13 37
M  V30 38 1 14 38
M  V30 39 1 14 39
M  V30 40 1 15 40
M  V30 41 1 17 41
M  V30 END BOND
M  V30 END CTAB
M  END
