
     RDKit          3D

  0  0  0  0  0  0  0  0  0  0999 V3000
M  V30 BEGIN CTAB
M  V30 COUNTS 38 38 0 0 0
M  V30 BEGIN ATOM
M  V30 1 C -5.4573 -0.621707 0.819956 0
M  V30 2 C -4.24237 -1.24818 0.216705 0
M  V30 3 C -3.04793 -0.236744 0.243494 0
M  V30 4 C -3.52211 0.942464 -0.567949 0
M  V30 5 C -2.54371 2.07039 -0.685734 0
M  V30 6 N -1.9402 -0.953349 -0.285924 0
M  V30 7 C -0.560282 -0.657968 -0.159769 0
M  V30 8 N -0.0533934 0.35923 0.557743 0
M  V30 9 C 1.27974 0.577993 0.665961 0
M  V30 10 N 1.79572 1.66676 1.43498 0
M  V30 11 C 2.18915 -0.244045 0.036439 0
M  V30 12 N 1.70418 -1.26444 -0.68422 0
M  V30 13 C 0.373891 -1.47371 -0.785682 0
M  V30 14 Cl -0.172787 -2.815 -1.73711 0
M  V30 15 C 3.62382 0.0272063 0.178877 0
M  V30 16 O 4.06988 0.968289 0.843628 0
M  V30 17 N 4.51384 -0.850078 -0.489975 0
M  V30 18 C 5.90718 -0.623735 -0.378514 0
M  V30 19 N 6.42626 0.462306 0.388464 0
M  V30 20 N 6.69675 -1.43871 -0.998472 0
M  V30 21 H -5.10355 0.105239 1.59785 0
M  V30 22 H -6.09455 -1.36067 1.37263 0
M  V30 23 H -6.12984 -0.136633 0.0879533 0
M  V30 24 H -4.45581 -1.47128 -0.850068 0
M  V30 25 H -3.9302 -2.17636 0.69984 0
M  V30 26 H -2.89633 -0.0195066 1.31166 0
M  V30 27 H -4.40366 1.36462 0.00364929 0
M  V30 28 H -3.95133 0.64321 -1.53836 0
M  V30 29 H -2.20465 2.40516 0.308318 0
M  V30 30 H -3.08451 2.96604 -1.15456 0
M  V30 31 H -1.71227 1.89709 -1.38223 0
M  V30 32 H -2.17864 -1.82508 -0.857156 0
M  V30 33 H 1.86848 1.65871 2.47175 0
M  V30 34 H 2.12289 2.52739 0.944049 0
M  V30 35 H 4.16655 -1.66599 -1.06779 0
M  V30 36 H 6.41845 0.424547 1.41672 0
M  V30 37 H 6.80864 1.28378 -0.0876666 0
M  V30 38 H 7.72001 -1.26723 -0.912817 0
M  V30 END ATOM
M  V30 BEGIN BOND
M  V30 1 1 1 2
M  V30 2 1 2 3
M  V30 3 1 3 4
M  V30 4 1 4 5
M  V30 5 1 3 6
M  V30 6 1 6 7
M  V30 7 2 7 8
M  V30 8 1 8 9
M  V30 9 1 9 10
M  V30 10 2 9 11
M  V30 11 1 11 12
M  V30 12 2 12 13
M  V30 13 1 13 14
M  V30 14 1 11 15
M  V30 15 2 15 16
M  V30 16 1 15 17
M  V30 17 1 17 18
M  V30 18 1 18 19
M  V30 19 2 18 20 CFG=2
M  V30 20 1 13 7
M  V30 21 1 1 21
M  V30 22 1 1 22
M  V30 23 1 1 23
M  V30 24 1 2 24
M  V30 25 1 2 25
M  V30 26 1 3 26
M  V30 27 1 4 27
M  V30 28 1 4 28
M  V30 29 1 5 29
M  V30 30 1 5 30
M  V30 31 1 5 31
M  V30 32 1 6 32
M  V30 33 1 10 33
M  V30 34 1 10 34
M  V30 35 1 17 35
M  V30 36 1 19 36
M  V30 37 1 19 37
M  V30 38 1 20 38
M  V30 END BOND
M  V30 END CTAB
M  END
