
     RDKit          3D

  0  0  0  0  0  0  0  0  0  0999 V3000
M  V30 BEGIN CTAB
M  V30 COUNTS 46 46 0 0 0
M  V30 BEGIN ATOM
M  V30 1 C -6.07254 -0.305266 -1.12867 0
M  V30 2 C -4.60616 -0.556588 -1.39276 0
M  V30 3 C -3.72482 0.418892 -0.656405 0
M  V30 4 C -2.25516 0.160806 -0.925934 0
M  V30 5 C -1.36261 1.06578 -0.24725 0
M  V30 6 O -1.60704 2.33416 -0.360498 0
M  V30 7 N -0.261406 0.74423 0.521056 0
M  V30 8 C 0.201516 -0.573232 0.788101 0
M  V30 9 C 1.49681 -0.569602 1.6012 0
M  V30 10 N 2.45229 0.370583 1.14461 0
M  V30 11 C 1.96173 1.57884 0.590867 0
M  V30 12 C 0.567708 1.80629 1.16032 0
M  V30 13 C 3.51926 -0.275077 0.470758 0
M  V30 14 C 4.58278 0.651034 -0.0516411 0
M  V30 15 S 5.84524 -0.319429 -0.866631 0
M  V30 16 O 6.94447 0.564609 -1.38134 0
M  V30 17 O 5.30662 -1.08361 -2.01792 0
M  V30 18 N 6.54508 -1.42579 0.255738 0
M  V30 19 N -1.90661 -1.21178 -0.754063 0
M  V30 20 C -4.08189 0.418779 0.782575 0
M  V30 21 H -6.26793 0.747679 -0.904345 0
M  V30 22 H -6.43304 -0.891111 -0.250649 0
M  V30 23 H -6.70147 -0.572184 -2.02047 0
M  V30 24 H -4.47205 -0.505783 -2.49189 0
M  V30 25 H -4.37385 -1.60721 -1.09836 0
M  V30 26 H -3.95016 1.42943 -1.06908 0
M  V30 27 H -2.08468 0.353296 -2.04608 0
M  V30 28 H -0.571818 -1.15779 1.31309 0
M  V30 29 H 0.473964 -1.09266 -0.145914 0
M  V30 30 H 1.94412 -1.58251 1.63507 0
M  V30 31 H 1.20123 -0.310524 2.63865 0
M  V30 32 H 2.57735 2.4215 0.934408 0
M  V30 33 H 1.83594 1.55824 -0.515059 0
M  V30 34 H 0.174327 2.7688 0.82949 0
M  V30 35 H 0.573444 1.68588 2.25176 0
M  V30 36 H 3.18959 -0.910268 -0.388568 0
M  V30 37 H 4.00507 -0.980528 1.192 0
M  V30 38 H 5.0798 1.2378 0.72183 0
M  V30 39 H 4.1744 1.33821 -0.82333 0
M  V30 40 H 5.94066 -1.63672 1.06669 0
M  V30 41 H 6.97251 -2.24846 -0.198131 0
M  V30 42 H -1.65763 -1.72744 -1.60051 0
M  V30 43 H -2.51151 -1.73004 -0.0884084 0
M  V30 44 H -4.67485 1.33689 1.072 0
M  V30 45 H -4.7683 -0.42851 0.985372 0
M  V30 46 H -3.22043 0.275906 1.46831 0
M  V30 END ATOM
M  V30 BEGIN BOND
M  V30 1 1 1 2
M  V30 2 1 2 3
M  V30 3 1 3 4
M  V30 4 1 4 5
M  V30 5 2 5 6
M  V30 6 1 5 7
M  V30 7 1 7 8
M  V30 8 1 8 9
M  V30 9 1 9 10
M  V30 10 1 10 11
M  V30 11 1 11 12
M  V30 12 1 10 13
M  V30 13 1 13 14
M  V30 14 1 14 15
M  V30 15 2 15 16
M  V30 16 2 15 17
M  V30 17 1 15 18
M  V30 18 1 4 19
M  V30 19 1 3 20
M  V30 20 1 12 7
M  V30 21 1 1 21
M  V30 22 1 1 22
M  V30 23 1 1 23
M  V30 24 1 2 24
M  V30 25 1 2 25
M  V30 26 1 3 26
M  V30 27 1 4 27
M  V30 28 1 8 28
M  V30 29 1 8 29
M  V30 30 1 9 30
M  V30 31 1 9 31
M  V30 32 1 11 32
M  V30 33 1 11 33
M  V30 34 1 12 34
M  V30 35 1 12 35
M  V30 36 1 13 36
M  V30 37 1 13 37
M  V30 38 1 14 38
M  V30 39 1 14 39
M  V30 40 1 18 40
M  V30 41 1 18 41
M  V30 42 1 19 42
M  V30 43 1 19 43
M  V30 44 1 20 44
M  V30 45 1 20 45
M  V30 46 1 20 46
M  V30 END BOND
M  V30 END CTAB
M  END
