
     RDKit          3D

  0  0  0  0  0  0  0  0  0  0999 V3000
M  V30 BEGIN CTAB
M  V30 COUNTS 28 29 0 0 0
M  V30 BEGIN ATOM
M  V30 1 N -5.18168 0.952029 0.38885 0
M  V30 2 C -4.01729 0.164889 0.125155 0
M  V30 3 C -2.95025 0.683734 -0.585213 0
M  V30 4 C -1.86556 -0.126533 -0.801752 0
M  V30 5 C -1.82689 -1.40853 -0.335859 0
M  V30 6 S -0.425673 -2.50524 -0.596703 0
M  V30 7 S 0.901687 -2.2378 1.04118 0
M  V30 8 C 2.09465 -0.950547 0.705131 0
M  V30 9 C 3.06065 -0.596482 1.62175 0
M  V30 10 C 3.98435 0.409989 1.34468 0
M  V30 11 Cl 5.21585 0.871532 2.49562 0
M  V30 12 C 3.91582 1.05603 0.120517 0
M  V30 13 N 4.84057 2.0771 -0.180093 0
M  V30 14 C 2.95977 0.722911 -0.816533 0
M  V30 15 C 2.06291 -0.28127 -0.500963 0
M  V30 16 C -2.89621 -1.89857 0.364722 0
M  V30 17 C -4.00683 -1.12455 0.607458 0
M  V30 18 Cl -5.37883 -1.77968 1.51632 0
M  V30 19 H -5.48315 1.09534 1.36167 0
M  V30 20 H -5.70549 1.36689 -0.401261 0
M  V30 21 H -3.00807 1.70511 -0.943377 0
M  V30 22 H -1.0375 0.269862 -1.35066 0
M  V30 23 H 3.11324 -1.09766 2.57051 0
M  V30 24 H 5.12137 2.77976 0.519386 0
M  V30 25 H 5.24381 2.116 -1.12955 0
M  V30 26 H 2.87082 1.20095 -1.78286 0
M  V30 27 H 1.31456 -0.542737 -1.23318 0
M  V30 28 H -2.91664 -2.9225 0.761558 0
M  V30 END ATOM
M  V30 BEGIN BOND
M  V30 1 1 1 2
M  V30 2 2 2 3
M  V30 3 1 3 4
M  V30 4 2 4 5
M  V30 5 1 5 6
M  V30 6 1 6 7
M  V30 7 1 7 8
M  V30 8 2 8 9
M  V30 9 1 9 10
M  V30 10 1 10 11
M  V30 11 2 10 12
M  V30 12 1 12 13
M  V30 13 1 12 14
M  V30 14 2 14 15
M  V30 15 1 5 16
M  V30 16 2 16 17
M  V30 17 1 17 18
M  V30 18 1 17 2
M  V30 19 1 15 8
M  V30 20 1 1 19
M  V30 21 1 1 20
M  V30 22 1 3 21
M  V30 23 1 4 22
M  V30 24 1 9 23
M  V30 25 1 13 24
M  V30 26 1 13 25
M  V30 27 1 14 26
M  V30 28 1 15 27
M  V30 29 1 16 28
M  V30 END BOND
M  V30 END CTAB
M  END
