
     RDKit          3D

  0  0  0  0  0  0  0  0  0  0999 V3000
M  V30 BEGIN CTAB
M  V30 COUNTS 22 22 0 0 0
M  V30 BEGIN ATOM
M  V30 1 N 2.743 1.03457 0.516207 0
M  V30 2 C 3.20677 -0.286042 0.268584 0
M  V30 3 N 4.59454 -0.522293 0.0751248 0
M  V30 4 N 2.38565 -1.30046 0.212953 0
M  V30 5 N 1.01387 -1.11752 0.396723 0
M  V30 6 C 0.299741 -0.295172 -0.286752 0
M  V30 7 C -1.13298 -0.125995 -0.0713759 0
M  V30 8 C -1.89091 0.757244 -0.807947 0
M  V30 9 C -3.23945 0.91317 -0.601706 0
M  V30 10 C -3.81588 0.139986 0.386337 0
M  V30 11 Cl -5.52444 0.31931 0.667158 0
M  V30 12 C -3.102 -0.758573 1.15152 0
M  V30 13 C -1.75185 -0.888647 0.917127 0
M  V30 14 H 2.31749 1.23706 1.45906 0
M  V30 15 H 2.8013 1.81043 -0.182895 0
M  V30 16 H 4.96909 -0.851149 -0.833051 0
M  V30 17 H 5.24701 -0.355693 0.880772 0
M  V30 18 H 0.791865 0.289509 -1.04949 0
M  V30 19 H -1.34855 1.3322 -1.57414 0
M  V30 20 H -3.8115 1.61726 -1.19776 0
M  V30 21 H -3.59139 -1.36129 1.93281 0
M  V30 22 H -1.16136 -1.58791 1.50292 0
M  V30 END ATOM
M  V30 BEGIN BOND
M  V30 1 1 1 2
M  V30 2 1 2 3
M  V30 3 2 2 4
M  V30 4 1 4 5
M  V30 5 2 5 6
M  V30 6 1 6 7
M  V30 7 2 7 8
M  V30 8 1 8 9
M  V30 9 2 9 10
M  V30 10 1 10 11
M  V30 11 1 10 12
M  V30 12 2 12 13
M  V30 13 1 13 7
M  V30 14 1 1 14
M  V30 15 1 1 15
M  V30 16 1 3 16
M  V30 17 1 3 17
M  V30 18 1 6 18
M  V30 19 1 8 19
M  V30 20 1 9 20
M  V30 21 1 12 21
M  V30 22 1 13 22
M  V30 END BOND
M  V30 END CTAB
M  END
