
     RDKit          3D

  0  0  0  0  0  0  0  0  0  0999 V3000
M  V30 BEGIN CTAB
M  V30 COUNTS 40 41 0 0 0
M  V30 BEGIN ATOM
M  V30 1 N 4.16865 -0.152936 0.718745 0
M  V30 2 C 2.92654 -0.116959 -0.0213977 0 CFG=2
M  V30 3 C 2.23318 1.2311 0.218765 0
M  V30 4 C 1.04739 1.19062 -0.72271 0 CFG=2
M  V30 5 N 0.538677 2.50862 -0.8581 0
M  V30 6 C 0.0194479 0.19246 -0.233044 0 CFG=2
M  V30 7 C -0.939386 0.0187254 -1.4184 0
M  V30 8 C -2.0195 -0.95766 -1.19338 0
M  V30 9 C -3.18465 -0.532913 -0.400362 0 CFG=1
M  V30 10 O -3.76141 -1.71994 0.128101 0
M  V30 11 C -3.02997 0.419839 0.684931 0 CFG=1
M  V30 12 O -3.06529 -0.183944 1.96498 0
M  V30 13 C -1.81509 1.3017 0.688982 0
M  V30 14 O -0.634351 0.677005 0.867106 0
M  V30 15 C 0.617711 -1.12806 0.0974284 0 CFG=2
M  V30 16 O -0.128535 -1.69407 1.16269 0
M  V30 17 C 2.02773 -1.16654 0.50481 0 CFG=1
M  V30 18 O 2.57885 -2.41863 0.140424 0
M  V30 19 H 4.34446 0.731113 1.16115 0
M  V30 20 H 4.95361 -0.518445 0.19291 0
M  V30 21 H 3.12041 -0.17782 -1.10862 0
M  V30 22 H 2.89098 2.07809 0.0421971 0
M  V30 23 H 1.81305 1.19158 1.25032 0
M  V30 24 H 1.41582 0.834783 -1.72707 0
M  V30 25 H 0.354776 2.92003 0.102136 0
M  V30 26 H 1.28731 3.10579 -1.27266 0
M  V30 27 H -1.28033 0.982733 -1.81777 0
M  V30 28 H -0.272968 -0.406864 -2.23065 0
M  V30 29 H -2.38422 -1.25994 -2.22488 0
M  V30 30 H -1.55716 -1.91898 -0.824468 0
M  V30 31 H -3.99735 -0.167785 -1.10032 0
M  V30 32 H -3.51258 -2.50591 -0.424256 0
M  V30 33 H -3.89711 1.14872 0.723363 0
M  V30 34 H -3.35107 0.494344 2.65252 0
M  V30 35 H -1.95517 1.97071 1.59648 0
M  V30 36 H -1.90078 1.99212 -0.161156 0
M  V30 37 H 0.483469 -1.82849 -0.779005 0
M  V30 38 H 0.169293 -2.61265 1.35868 0
M  V30 39 H 2.12209 -1.15334 1.63119 0
M  V30 40 H 3.57348 -2.36819 0.113749 0
M  V30 END ATOM
M  V30 BEGIN BOND
M  V30 1 1 1 2
M  V30 2 1 2 3
M  V30 3 1 3 4
M  V30 4 1 4 5
M  V30 5 1 4 6
M  V30 6 1 6 7
M  V30 7 1 7 8
M  V30 8 1 8 9
M  V30 9 1 9 10
M  V30 10 1 9 11
M  V30 11 1 11 12
M  V30 12 1 11 13
M  V30 13 1 13 14
M  V30 14 1 6 15
M  V30 15 1 15 16
M  V30 16 1 15 17
M  V30 17 1 17 18
M  V30 18 1 17 2
M  V30 19 1 6 14 CFG=1
M  V30 20 1 1 19
M  V30 21 1 1 20
M  V30 22 1 2 21 CFG=3
M  V30 23 1 3 22
M  V30 24 1 3 23
M  V30 25 1 4 24 CFG=3
M  V30 26 1 5 25
M  V30 27 1 5 26
M  V30 28 1 7 27
M  V30 29 1 7 28
M  V30 30 1 8 29
M  V30 31 1 8 30
M  V30 32 1 9 31 CFG=3
M  V30 33 1 10 32
M  V30 34 1 11 33 CFG=1
M  V30 35 1 12 34
M  V30 36 1 13 35
M  V30 37 1 13 36
M  V30 38 1 15 37 CFG=3
M  V30 39 1 16 38
M  V30 40 1 17 39 CFG=1
M  V30 41 1 18 40
M  V30 END BOND
M  V30 END CTAB
M  END
