
     RDKit          3D

  0  0  0  0  0  0  0  0  0  0999 V3000
M  V30 BEGIN CTAB
M  V30 COUNTS 33 33 0 0 0
M  V30 BEGIN ATOM
M  V30 1 C 3.19062 1.56827 -0.301982 0
M  V30 2 C 2.07547 0.722884 0.333763 0
M  V30 3 C 1.05349 0.496643 -0.725473 0
M  V30 4 C -0.126503 -0.299888 -0.340028 0
M  V30 5 C 0.270389 -1.70331 0.124754 0
M  V30 6 C -0.937378 -2.61116 -0.0546042 0
M  V30 7 C -2.22193 -1.8266 -0.0420989 0
M  V30 8 C -2.14983 -0.602144 0.830695 0
M  V30 9 N -1.00374 0.235183 0.617274 0
M  V30 10 S -1.54394 1.82504 0.362451 0
M  V30 11 O -2.5604 2.12201 1.46172 0
M  V30 12 O -0.506924 2.87565 0.466665 0
M  V30 13 N -2.44608 1.96957 -1.12823 0
M  V30 14 N 2.74337 -0.505392 0.75365 0
M  V30 15 H 4.001 1.76222 0.429593 0
M  V30 16 H 3.64646 0.899816 -1.082 0
M  V30 17 H 2.78846 2.47086 -0.768757 0
M  V30 18 H 1.71756 1.2026 1.24858 0
M  V30 19 H 1.56809 -0.0334132 -1.56922 0
M  V30 20 H 0.731821 1.46403 -1.12956 0
M  V30 21 H -0.718682 -0.485808 -1.28524 0
M  V30 22 H 0.484608 -1.68916 1.20756 0
M  V30 23 H 1.09323 -2.05293 -0.505845 0
M  V30 24 H -0.983709 -3.38936 0.733469 0
M  V30 25 H -0.839977 -3.13473 -1.02752 0
M  V30 26 H -2.55343 -1.58704 -1.07416 0
M  V30 27 H -3.01054 -2.48085 0.38499 0
M  V30 28 H -2.22319 -0.907533 1.91707 0
M  V30 29 H -3.08508 -0.0375596 0.64698 0
M  V30 30 H -1.83604 2.29944 -1.89735 0
M  V30 31 H -3.21707 2.67035 -1.0279 0
M  V30 32 H 3.39874 -0.242553 1.50759 0
M  V30 33 H 3.20115 -0.995129 -0.03717 0
M  V30 END ATOM
M  V30 BEGIN BOND
M  V30 1 1 1 2
M  V30 2 1 2 3
M  V30 3 1 3 4
M  V30 4 1 4 5
M  V30 5 1 5 6
M  V30 6 1 6 7
M  V30 7 1 7 8
M  V30 8 1 8 9
M  V30 9 1 9 10
M  V30 10 2 10 11
M  V30 11 2 10 12
M  V30 12 1 10 13
M  V30 13 1 2 14
M  V30 14 1 9 4
M  V30 15 1 1 15
M  V30 16 1 1 16
M  V30 17 1 1 17
M  V30 18 1 2 18
M  V30 19 1 3 19
M  V30 20 1 3 20
M  V30 21 1 4 21
M  V30 22 1 5 22
M  V30 23 1 5 23
M  V30 24 1 6 24
M  V30 25 1 6 25
M  V30 26 1 7 26
M  V30 27 1 7 27
M  V30 28 1 8 28
M  V30 29 1 8 29
M  V30 30 1 13 30
M  V30 31 1 13 31
M  V30 32 1 14 32
M  V30 33 1 14 33
M  V30 END BOND
M  V30 END CTAB
M  END
