
     RDKit          3D

  0  0  0  0  0  0  0  0  0  0999 V3000
M  V30 BEGIN CTAB
M  V30 COUNTS 22 22 0 0 0
M  V30 BEGIN ATOM
M  V30 1 O 3.4305 -0.548313 0.320117 0
M  V30 2 C 2.69593 0.587244 0.498545 0
M  V30 3 O 3.30619 1.63887 0.825593 0
M  V30 4 C 1.25289 0.677308 0.339082 0
M  V30 5 C 0.562263 1.84893 0.531618 0
M  V30 6 C -0.805584 1.90388 0.373213 0
M  V30 7 C -1.51776 0.760768 0.0115911 0
M  V30 8 C -0.844844 -0.428481 -0.187365 0
M  V30 9 C 0.515254 -0.449604 -0.0218749 0
M  V30 10 N 1.20569 -1.67709 -0.227779 0
M  V30 11 C -1.57409 -1.64966 -0.569715 0
M  V30 12 N -2.93446 0.834465 -0.148474 0
M  V30 13 H 4.33566 -0.591982 -0.166052 0
M  V30 14 H 1.12506 2.74045 0.814573 0
M  V30 15 H -1.36023 2.82764 0.523745 0
M  V30 16 H 1.15782 -2.48785 0.427395 0
M  V30 17 H 1.81236 -1.82511 -1.07446 0
M  V30 18 H -1.81692 -2.20493 0.370461 0
M  V30 19 H -1.0335 -2.2842 -1.28499 0
M  V30 20 H -2.5628 -1.41532 -1.03784 0
M  V30 21 H -3.51702 1.02829 0.717973 0
M  V30 22 H -3.43241 0.714687 -1.03535 0
M  V30 END ATOM
M  V30 BEGIN BOND
M  V30 1 1 1 2
M  V30 2 2 2 3
M  V30 3 1 2 4
M  V30 4 2 4 5
M  V30 5 1 5 6
M  V30 6 2 6 7
M  V30 7 1 7 8
M  V30 8 2 8 9
M  V30 9 1 9 10
M  V30 10 1 8 11
M  V30 11 1 7 12
M  V30 12 1 9 4
M  V30 13 1 1 13
M  V30 14 1 5 14
M  V30 15 1 6 15
M  V30 16 1 10 16
M  V30 17 1 10 17
M  V30 18 1 11 18
M  V30 19 1 11 19
M  V30 20 1 11 20
M  V30 21 1 12 21
M  V30 22 1 12 22
M  V30 END BOND
M  V30 END CTAB
M  END
