
     RDKit          3D

  0  0  0  0  0  0  0  0  0  0999 V3000
M  V30 BEGIN CTAB
M  V30 COUNTS 32 33 0 0 0
M  V30 BEGIN ATOM
M  V30 1 N 5.12609 1.46601 0.938787 0
M  V30 2 C 3.84707 0.846176 0.864661 0
M  V30 3 C 2.74377 1.62586 1.05616 0
M  V30 4 C 1.49333 1.04553 0.988548 0
M  V30 5 C 1.32579 -0.300151 0.732951 0
M  V30 6 C 2.4902 -1.05104 0.544843 0
M  V30 7 N 3.69797 -0.463155 0.615465 0
M  V30 8 C 0.00143313 -0.955931 0.653102 0 CFG=2
M  V30 9 N 0.00924131 -1.81742 -0.503534 0
M  V30 10 C -1.11575 -1.59055 -1.37905 0
M  V30 11 C -2.36416 -1.619 -0.516497 0
M  V30 12 N -2.37208 -0.462488 0.321035 0
M  V30 13 C -1.08063 0.0727259 0.624607 0
M  V30 14 S -3.48991 0.744339 -0.187634 0
M  V30 15 O -3.36211 1.90515 0.78247 0
M  V30 16 O -4.89618 0.277156 -0.143866 0
M  V30 17 N -3.10592 1.31623 -1.74235 0
M  V30 18 H 5.51035 1.86797 1.8137 0
M  V30 19 H 5.68491 1.50537 0.056347 0
M  V30 20 H 2.85382 2.68611 1.25839 0
M  V30 21 H 0.624721 1.67322 1.14207 0
M  V30 22 H 2.36712 -2.10796 0.343781 0
M  V30 23 H -0.143262 -1.58511 1.5643 0
M  V30 24 H 0.109371 -2.8327 -0.231917 0
M  V30 25 H -0.997488 -0.603553 -1.85516 0
M  V30 26 H -1.14053 -2.42042 -2.10817 0
M  V30 27 H -2.28062 -2.52629 0.134171 0
M  V30 28 H -3.28067 -1.70034 -1.13558 0
M  V30 29 H -1.14023 0.523269 1.6472 0
M  V30 30 H -0.774341 0.870107 -0.105802 0
M  V30 31 H -3.93957 1.52675 -2.33537 0
M  V30 32 H -2.40173 2.08415 -1.73847 0
M  V30 END ATOM
M  V30 BEGIN BOND
M  V30 1 1 1 2
M  V30 2 2 2 3
M  V30 3 1 3 4
M  V30 4 2 4 5
M  V30 5 1 5 6
M  V30 6 2 6 7
M  V30 7 1 5 8
M  V30 8 1 8 9
M  V30 9 1 9 10
M  V30 10 1 10 11
M  V30 11 1 11 12
M  V30 12 1 12 13
M  V30 13 1 12 14
M  V30 14 2 14 15
M  V30 15 2 14 16
M  V30 16 1 14 17
M  V30 17 1 7 2
M  V30 18 1 13 8
M  V30 19 1 1 18
M  V30 20 1 1 19
M  V30 21 1 3 20
M  V30 22 1 4 21
M  V30 23 1 6 22
M  V30 24 1 8 23 CFG=1
M  V30 25 1 9 24
M  V30 26 1 10 25
M  V30 27 1 10 26
M  V30 28 1 11 27
M  V30 29 1 11 28
M  V30 30 1 13 29
M  V30 31 1 13 30
M  V30 32 1 17 31
M  V30 33 1 17 32
M  V30 END BOND
M  V30 END CTAB
M  END
