
     RDKit          3D

  0  0  0  0  0  0  0  0  0  0999 V3000
M  V30 BEGIN CTAB
M  V30 COUNTS 32 33 0 0 0
M  V30 BEGIN ATOM
M  V30 1 C 4.67517 1.97378 0.659222 0
M  V30 2 C 4.32536 0.557127 1.03958 0
M  V30 3 C 3.0315 0.202805 0.358576 0
M  V30 4 N 2.27419 0.961976 -0.449888 0
M  V30 5 N 1.21771 0.266737 -0.837743 0
M  V30 6 C 1.24685 -0.961978 -0.301234 0
M  V30 7 N 2.39443 -0.969889 0.442059 0
M  V30 8 N 2.82067 -2.07199 1.17957 0
M  V30 9 S 0.0992359 -2.31288 -0.480079 0
M  V30 10 C -1.2805 -1.93592 -1.54224 0
M  V30 11 C -2.22696 -0.921466 -1.02738 0
M  V30 12 C -3.23848 -1.29841 -0.147589 0
M  V30 13 C -4.15865 -0.399469 0.339731 0
M  V30 14 C -4.12392 0.928979 -0.0219611 0
M  V30 15 C -3.13122 1.3217 -0.891462 0
M  V30 16 C -2.19786 0.402166 -1.38423 0
M  V30 17 N -5.0872 1.86692 0.486899 0
M  V30 18 H 4.98552 2.05695 -0.400362 0
M  V30 19 H 3.83904 2.65883 0.844532 0
M  V30 20 H 5.49279 2.29763 1.35496 0
M  V30 21 H 4.15827 0.544886 2.1492 0
M  V30 22 H 5.12699 -0.144956 0.801491 0
M  V30 23 H 2.65355 -2.21699 2.19916 0
M  V30 24 H 3.3496 -2.79949 0.644796 0
M  V30 25 H -0.879696 -1.61665 -2.5532 0
M  V30 26 H -1.79566 -2.89924 -1.77127 0
M  V30 27 H -3.27878 -2.35187 0.149566 0
M  V30 28 H -4.95792 -0.697688 1.03551 0
M  V30 29 H -3.07766 2.35778 -1.19489 0
M  V30 30 H -1.44005 0.747217 -2.07586 0
M  V30 31 H -6.07214 1.893 0.211671 0
M  V30 32 H -4.74418 2.56041 1.18288 0
M  V30 END ATOM
M  V30 BEGIN BOND
M  V30 1 1 1 2
M  V30 2 1 2 3
M  V30 3 2 3 4
M  V30 4 1 4 5
M  V30 5 2 5 6
M  V30 6 1 6 7
M  V30 7 1 7 8
M  V30 8 1 6 9
M  V30 9 1 9 10
M  V30 10 1 10 11
M  V30 11 2 11 12
M  V30 12 1 12 13
M  V30 13 2 13 14
M  V30 14 1 14 15
M  V30 15 2 15 16
M  V30 16 1 14 17
M  V30 17 1 7 3
M  V30 18 1 16 11
M  V30 19 1 1 18
M  V30 20 1 1 19
M  V30 21 1 1 20
M  V30 22 1 2 21
M  V30 23 1 2 22
M  V30 24 1 8 23
M  V30 25 1 8 24
M  V30 26 1 10 25
M  V30 27 1 10 26
M  V30 28 1 12 27
M  V30 29 1 13 28
M  V30 30 1 15 29
M  V30 31 1 16 30
M  V30 32 1 17 31
M  V30 33 1 17 32
M  V30 END BOND
M  V30 END CTAB
M  END
