
     RDKit          3D

  0  0  0  0  0  0  0  0  0  0999 V3000
M  V30 BEGIN CTAB
M  V30 COUNTS 32 33 0 0 0
M  V30 BEGIN ATOM
M  V30 1 C -0.472073 -1.39566 -1.85837 0
M  V30 2 C -0.189217 -0.795301 -0.504875 0
M  V30 3 N -1.41667 -0.194458 -0.021014 0
M  V30 4 N -1.76721 1.0794 -0.0793256 0
M  V30 5 C -2.98127 1.2579 0.473336 0
M  V30 6 N -3.40255 0.0699378 0.887917 0
M  V30 7 C -2.435 -0.827844 0.582141 0
M  V30 8 N -2.54637 -2.21464 0.882946 0
M  V30 9 N -3.63509 2.52057 0.563023 0
M  V30 10 C 0.936346 0.231111 -0.569789 0
M  V30 11 C 1.17615 0.792821 0.788899 0
M  V30 12 C 2.577 1.22122 1.05633 0
M  V30 13 O 3.36713 1.27982 -0.105192 0
M  V30 14 C 3.43429 -0.0431706 -0.575012 0
M  V30 15 C 2.13068 -0.354675 -1.23325 0
M  V30 16 H -1.38774 -0.939559 -2.29158 0
M  V30 17 H -0.670944 -2.48906 -1.75086 0
M  V30 18 H 0.335858 -1.22156 -2.58986 0
M  V30 19 H 0.154167 -1.61037 0.163451 0
M  V30 20 H -1.89622 -2.6794 1.53253 0
M  V30 21 H -3.292 -2.80074 0.452454 0
M  V30 22 H -4.07805 2.95651 -0.279183 0
M  V30 23 H -3.67765 3.02555 1.47885 0
M  V30 24 H 0.528915 1.06855 -1.20736 0
M  V30 25 H 0.834614 0.020349 1.53494 0
M  V30 26 H 0.513253 1.68228 0.996911 0
M  V30 27 H 2.66125 2.21261 1.55421 0
M  V30 28 H 3.02726 0.490571 1.77812 0
M  V30 29 H 4.26386 -0.136888 -1.29801 0
M  V30 30 H 3.63223 -0.740949 0.267131 0
M  V30 31 H 2.2 0.0129061 -2.29561 0
M  V30 32 H 2.07505 -1.47783 -1.32843 0
M  V30 END ATOM
M  V30 BEGIN BOND
M  V30 1 1 1 2
M  V30 2 1 2 3
M  V30 3 1 3 4
M  V30 4 2 4 5
M  V30 5 1 5 6
M  V30 6 2 6 7
M  V30 7 1 7 8
M  V30 8 1 5 9
M  V30 9 1 2 10
M  V30 10 1 10 11
M  V30 11 1 11 12
M  V30 12 1 12 13
M  V30 13 1 13 14
M  V30 14 1 14 15
M  V30 15 1 7 3
M  V30 16 1 15 10
M  V30 17 1 1 16
M  V30 18 1 1 17
M  V30 19 1 1 18
M  V30 20 1 2 19
M  V30 21 1 8 20
M  V30 22 1 8 21
M  V30 23 1 9 22
M  V30 24 1 9 23
M  V30 25 1 10 24
M  V30 26 1 11 25
M  V30 27 1 11 26
M  V30 28 1 12 27
M  V30 29 1 12 28
M  V30 30 1 14 29
M  V30 31 1 14 30
M  V30 32 1 15 31
M  V30 33 1 15 32
M  V30 END BOND
M  V30 END CTAB
M  END
