
     RDKit          3D

  0  0  0  0  0  0  0  0  0  0999 V3000
M  V30 BEGIN CTAB
M  V30 COUNTS 52 54 0 0 0
M  V30 BEGIN ATOM
M  V30 1 C -1.93105 -4.35126 -1.7396 0
M  V30 2 O -2.9861 -3.52014 -1.30022 0
M  V30 3 C -2.72164 -2.28157 -0.738235 0
M  V30 4 C -3.72563 -1.45208 -0.302129 0
M  V30 5 N -5.0875 -1.89252 -0.437691 0
M  V30 6 C -3.47887 -0.230584 0.252688 0
M  V30 7 C -2.15401 0.189458 0.380706 0
M  V30 8 C -1.88716 1.4897 0.968668 0
M  V30 9 O -0.75106 1.97597 1.13613 0
M  V30 10 C -3.00935 2.32656 1.41216 0
M  V30 11 C -2.73809 3.56573 1.97181 0
M  V30 12 C -3.74004 4.38834 2.40273 0
M  V30 13 C -5.04404 3.97115 2.27525 0
M  V30 14 C -5.32745 2.7419 1.7208 0
M  V30 15 C -4.3084 1.91858 1.28869 0
M  V30 16 C -4.53982 0.615976 0.697639 0
M  V30 17 O -5.73255 0.209694 0.569557 0
M  V30 18 C -1.13242 -0.612036 -0.0431006 0
M  V30 19 N 0.23389 -0.243779 0.0679133 0
M  V30 20 C 1.24772 -1.1948 -0.460757 0
M  V30 21 C 2.59541 -0.593447 -0.215223 0
M  V30 22 C 3.72959 -1.42999 -0.691084 0
M  V30 23 C 5.03933 -0.756147 -0.399416 0
M  V30 24 C 5.20084 0.580903 -1.04911 0
M  V30 25 C 6.5602 1.15591 -0.686423 0
M  V30 26 N 6.70382 1.32077 0.743087 0
M  V30 27 C -1.4435 -1.85931 -0.606736 0
M  V30 28 H -1.5035 -3.85913 -2.647 0
M  V30 29 H -1.14286 -4.43172 -0.93484 0
M  V30 30 H -2.25531 -5.3769 -1.93793 0
M  V30 31 H -5.54765 -2.25041 0.415998 0
M  V30 32 H -5.51899 -1.82462 -1.37304 0
M  V30 33 H -1.72539 3.91303 2.08159 0
M  V30 34 H -3.52888 5.37153 2.84701 0
M  V30 35 H -5.86191 4.61952 2.61631 0
M  V30 36 H -6.33762 2.37433 1.60152 0
M  V30 37 H 0.563254 0.624306 0.487452 0
M  V30 38 H 1.05126 -1.42838 -1.51829 0
M  V30 39 H 1.12112 -2.11104 0.147774 0
M  V30 40 H 2.61726 0.36292 -0.794308 0
M  V30 41 H 2.68907 -0.352833 0.85497 0
M  V30 42 H 3.70081 -1.60486 -1.79374 0
M  V30 43 H 3.76988 -2.43956 -0.235843 0
M  V30 44 H 5.09276 -0.576046 0.715049 0
M  V30 45 H 5.91168 -1.41154 -0.653801 0
M  V30 46 H 5.1172 0.545041 -2.14088 0
M  V30 47 H 4.41031 1.28272 -0.661984 0
M  V30 48 H 6.70807 2.1368 -1.16231 0
M  V30 49 H 7.33827 0.421989 -1.0173 0
M  V30 50 H 6.92134 0.404573 1.15177 0
M  V30 51 H 7.42824 2.04572 0.895764 0
M  V30 52 H -0.590532 -2.4684 -0.931624 0
M  V30 END ATOM
M  V30 BEGIN BOND
M  V30 1 1 1 2
M  V30 2 1 2 3
M  V30 3 2 3 4
M  V30 4 1 4 5
M  V30 5 1 4 6
M  V30 6 2 6 7
M  V30 7 1 7 8
M  V30 8 2 8 9
M  V30 9 1 8 10
M  V30 10 2 10 11
M  V30 11 1 11 12
M  V30 12 2 12 13
M  V30 13 1 13 14
M  V30 14 2 14 15
M  V30 15 1 15 16
M  V30 16 2 16 17
M  V30 17 1 7 18
M  V30 18 1 18 19
M  V30 19 1 19 20
M  V30 20 1 20 21
M  V30 21 1 21 22
M  V30 22 1 22 23
M  V30 23 1 23 24
M  V30 24 1 24 25
M  V30 25 1 25 26
M  V30 26 2 18 27
M  V30 27 1 27 3
M  V30 28 1 16 6
M  V30 29 1 15 10
M  V30 30 1 1 28
M  V30 31 1 1 29
M  V30 32 1 1 30
M  V30 33 1 5 31
M  V30 34 1 5 32
M  V30 35 1 11 33
M  V30 36 1 12 34
M  V30 37 1 13 35
M  V30 38 1 14 36
M  V30 39 1 19 37
M  V30 40 1 20 38
M  V30 41 1 20 39
M  V30 42 1 21 40
M  V30 43 1 21 41
M  V30 44 1 22 42
M  V30 45 1 22 43
M  V30 46 1 23 44
M  V30 47 1 23 45
M  V30 48 1 24 46
M  V30 49 1 24 47
M  V30 50 1 25 48
M  V30 51 1 25 49
M  V30 52 1 26 50
M  V30 53 1 26 51
M  V30 54 1 27 52
M  V30 END BOND
M  V30 END CTAB
M  END
