
     RDKit          3D

  0  0  0  0  0  0  0  0  0  0999 V3000
M  V30 BEGIN CTAB
M  V30 COUNTS 28 30 0 0 0
M  V30 BEGIN ATOM
M  V30 1 N 5.12018 1.13835 -0.337013 0
M  V30 2 C 4.95553 -0.229129 -0.0185888 0
M  V30 3 N 3.80466 -0.768881 0.123481 0
M  V30 4 C 2.6524 0.085538 -0.0565347 0
M  V30 5 S 2.54655 1.7463 -0.438657 0
M  V30 6 C 0.850587 1.90076 -0.448737 0
M  V30 7 C 0.448849 0.617697 -0.146215 0
M  V30 8 N 1.37739 -0.263073 0.0432645 0
M  V30 9 C -1.00507 0.294901 -0.049677 0
M  V30 10 C -1.51286 -0.948716 0.245354 0
M  V30 11 C -2.89796 -0.864887 0.246893 0
M  V30 12 C -3.15409 0.462473 -0.0559548 0
M  V30 13 O -2.00947 1.08302 -0.216625 0
M  V30 14 C -4.46537 0.860566 -0.128152 0
M  V30 15 C -5.50409 -0.0262022 0.0924301 0
M  V30 16 C -5.25594 -1.35985 0.396852 0
M  V30 17 C -3.92604 -1.75542 0.468187 0
M  V30 18 N 6.16238 -0.992399 0.139565 0
M  V30 19 H 5.23291 1.43358 -1.3465 0
M  V30 20 H 5.1356 1.89243 0.40612 0
M  V30 21 H 0.203754 2.77569 -0.641134 0
M  V30 22 H -0.964343 -1.86202 0.448127 0
M  V30 23 H -4.68898 1.88609 -0.361744 0
M  V30 24 H -6.54998 0.259419 0.0422149 0
M  V30 25 H -6.0562 -2.06449 0.571759 0
M  V30 26 H -3.70185 -2.79147 0.704216 0
M  V30 27 H 6.41898 -1.47218 1.01661 0
M  V30 28 H 6.78247 -1.0381 -0.699544 0
M  V30 END ATOM
M  V30 BEGIN BOND
M  V30 1 1 1 2
M  V30 2 2 2 3 CFG=2
M  V30 3 1 3 4
M  V30 4 1 4 5
M  V30 5 1 5 6
M  V30 6 2 6 7
M  V30 7 1 7 8
M  V30 8 1 7 9
M  V30 9 2 9 10
M  V30 10 1 10 11
M  V30 11 2 11 12
M  V30 12 1 12 13
M  V30 13 1 12 14
M  V30 14 2 14 15
M  V30 15 1 15 16
M  V30 16 2 16 17
M  V30 17 1 2 18
M  V30 18 2 8 4
M  V30 19 1 13 9
M  V30 20 1 17 11
M  V30 21 1 1 19
M  V30 22 1 1 20
M  V30 23 1 6 21
M  V30 24 1 10 22
M  V30 25 1 14 23
M  V30 26 1 15 24
M  V30 27 1 16 25
M  V30 28 1 17 26
M  V30 29 1 18 27
M  V30 30 1 18 28
M  V30 END BOND
M  V30 END CTAB
M  END
