
     RDKit          3D

  0  0  0  0  0  0  0  0  0  0999 V3000
M  V30 BEGIN CTAB
M  V30 COUNTS 28 29 0 0 0
M  V30 BEGIN ATOM
M  V30 1 C -1.9689 0.348971 1.68656 0
M  V30 2 C -1.76548 0.503068 0.199087 0 CFG=2
M  V30 3 C -3.03933 0.155518 -0.560924 0
M  V30 4 N -2.61731 -0.326137 -1.84719 0
M  V30 5 C -1.21892 -0.631216 -1.77732 0
M  V30 6 C -0.84083 -0.602615 -0.323306 0 CFG=1
M  V30 7 C 0.568343 -0.292761 -0.0886137 0
M  V30 8 N 1.18886 0.787037 -0.588065 0
M  V30 9 C 2.50901 1.0001 -0.318843 0
M  V30 10 N 3.19376 2.14147 -0.837936 0
M  V30 11 N 3.19489 0.139372 0.441763 0
M  V30 12 C 2.59335 -0.943258 0.948845 0
M  V30 13 N 1.29165 -1.13216 0.669847 0
M  V30 14 N 3.2687 -1.88966 1.76094 0
M  V30 15 H -1.20881 0.946554 2.20496 0
M  V30 16 H -1.78678 -0.716602 1.93725 0
M  V30 17 H -2.96668 0.62045 1.99835 0
M  V30 18 H -1.42328 1.50134 -0.0979729 0
M  V30 19 H -3.73986 1.01152 -0.609555 0
M  V30 20 H -3.52464 -0.666579 0.0395872 0
M  V30 21 H -2.83412 0.425254 -2.55117 0
M  V30 22 H -0.646999 0.158195 -2.30292 0
M  V30 23 H -1.00044 -1.64825 -2.2027 0
M  V30 24 H -1.16974 -1.52689 0.166033 0
M  V30 25 H 3.76513 2.73863 -0.217983 0
M  V30 26 H 3.12779 2.3903 -1.85151 0
M  V30 27 H 2.98736 -2.05657 2.74487 0
M  V30 28 H 4.06328 -2.43509 1.37792 0
M  V30 END ATOM
M  V30 BEGIN BOND
M  V30 1 1 1 2
M  V30 2 1 2 3
M  V30 3 1 3 4
M  V30 4 1 4 5
M  V30 5 1 5 6
M  V30 6 1 6 7
M  V30 7 2 7 8
M  V30 8 1 8 9
M  V30 9 1 9 10
M  V30 10 2 9 11
M  V30 11 1 11 12
M  V30 12 2 12 13
M  V30 13 1 12 14
M  V30 14 1 6 2
M  V30 15 1 13 7
M  V30 16 1 1 15
M  V30 17 1 1 16
M  V30 18 1 1 17
M  V30 19 1 2 18 CFG=1
M  V30 20 1 3 19
M  V30 21 1 3 20
M  V30 22 1 4 21
M  V30 23 1 5 22
M  V30 24 1 5 23
M  V30 25 1 6 24 CFG=1
M  V30 26 1 10 25
M  V30 27 1 10 26
M  V30 28 1 14 27
M  V30 29 1 14 28
M  V30 END BOND
M  V30 END CTAB
M  END
