
     RDKit          3D

  0  0  0  0  0  0  0  0  0  0999 V3000
M  V30 BEGIN CTAB
M  V30 COUNTS 71 74 0 0 0
M  V30 BEGIN ATOM
M  V30 1 N 7.75686 1.50614 1.59867 0
M  V30 2 C 7.51318 1.26816 0.228568 0
M  V30 3 N 8.10271 2.00933 -0.616867 0
M  V30 4 C 6.60743 0.195886 -0.150014 0
M  V30 5 C 6.30365 -0.119757 -1.45484 0
M  V30 6 C 5.42694 -1.15468 -1.78002 0
M  V30 7 C 4.83283 -1.90044 -0.787631 0
M  V30 8 C 3.8956 -3.0099 -1.09053 0
M  V30 9 N 2.62735 -2.45483 -1.5704 0
M  V30 10 C 1.65493 -1.88413 -0.704651 0
M  V30 11 O 1.91401 -1.87536 0.517727 0
M  V30 12 C 0.425771 -1.34809 -1.31112 0 CFG=2
M  V30 13 C 0.733832 -0.283213 -2.3169 0
M  V30 14 C 0.583103 0.998029 -1.56841 0
M  V30 15 C 0.370495 0.577609 -0.102375 0
M  V30 16 N -0.403066 -0.629711 -0.319653 0
M  V30 17 C -1.62151 -1.09346 0.238269 0
M  V30 18 O -1.95177 -2.26815 -0.189788 0
M  V30 19 C -2.49895 -0.446878 1.18683 0 CFG=2
M  V30 20 N -3.16932 -1.41665 2.0557 0
M  V30 21 S -2.86347 -1.48191 3.65087 0
M  V30 22 N -1.65579 -2.5672 4.19956 0
M  V30 23 O -2.58853 -0.151918 4.34306 0
M  V30 24 O -4.13618 -1.95723 4.34761 0
M  V30 25 C -3.52504 0.528674 0.744541 0
M  V30 26 C -4.55965 0.0793721 -0.201044 0
M  V30 27 C -4.27284 -0.338504 -1.48663 0
M  V30 28 C -5.23904 -0.759223 -2.38087 0
M  V30 29 C -6.56538 -0.772933 -1.99872 0
M  V30 30 C -6.89706 -0.371239 -0.746188 0
M  V30 31 C -5.90345 0.0399936 0.113799 0
M  V30 32 C -3.16964 1.9488 0.610629 0
M  V30 33 C -2.86916 2.57947 -0.591476 0
M  V30 34 C -2.53704 3.88435 -0.730006 0
M  V30 35 C -2.47717 4.68929 0.365891 0
M  V30 36 C -2.75768 4.15123 1.59102 0
M  V30 37 C -3.08955 2.83514 1.7031 0
M  V30 38 C 5.13424 -1.58878 0.511549 0
M  V30 39 C 5.99081 -0.577348 0.844098 0
M  V30 40 H 8.5794 1.08471 2.0547 0
M  V30 41 H 7.11487 2.10114 2.14432 0
M  V30 42 H 7.96833 1.88785 -1.63041 0
M  V30 43 H 6.76175 0.455279 -2.2613 0
M  V30 44 H 5.21159 -1.37215 -2.80218 0
M  V30 45 H 3.74242 -3.65139 -0.200937 0
M  V30 46 H 4.36253 -3.6562 -1.85768 0
M  V30 47 H 2.48421 -2.51049 -2.61978 0
M  V30 48 H -0.196632 -2.17262 -1.76309 0
M  V30 49 H 1.76757 -0.447357 -2.69542 0
M  V30 50 H -0.0194331 -0.399343 -3.13648 0
M  V30 51 H -0.275414 1.53936 -1.97962 0
M  V30 52 H 1.53405 1.5565 -1.6539 0
M  V30 53 H 1.3828 0.395444 0.318913 0
M  V30 54 H -0.154195 1.38998 0.384524 0
M  V30 55 H -1.86183 0.107256 1.90056 0
M  V30 56 H -4.07169 -1.70344 1.65709 0
M  V30 57 H -1.95786 -3.27848 4.87208 0
M  V30 58 H -1.02138 -2.9104 3.45485 0
M  V30 59 H -4.14519 0.582503 1.73677 0
M  V30 60 H -3.25985 -0.350142 -1.85169 0
M  V30 61 H -4.98461 -1.08184 -3.38111 0
M  V30 62 H -7.35837 -1.0925 -2.66346 0
M  V30 63 H -7.92263 -0.368121 -0.410472 0
M  V30 64 H -6.23403 0.355077 1.11728 0
M  V30 65 H -2.90784 1.96567 -1.47711 0
M  V30 66 H -2.32056 4.27612 -1.72554 0
M  V30 67 H -2.21271 5.73179 0.261933 0
M  V30 68 H -2.70296 4.81037 2.45423 0
M  V30 69 H -3.30408 2.44462 2.68489 0
M  V30 70 H 4.6622 -2.18654 1.30429 0
M  V30 71 H 6.21711 -0.34261 1.86549 0
M  V30 END ATOM
M  V30 BEGIN BOND
M  V30 1 1 1 2
M  V30 2 2 2 3 CFG=2
M  V30 3 1 2 4
M  V30 4 2 4 5
M  V30 5 1 5 6
M  V30 6 2 6 7
M  V30 7 1 7 8
M  V30 8 1 8 9
M  V30 9 1 9 10
M  V30 10 2 10 11
M  V30 11 1 10 12
M  V30 12 1 12 13
M  V30 13 1 13 14
M  V30 14 1 14 15
M  V30 15 1 15 16
M  V30 16 1 16 17
M  V30 17 2 17 18
M  V30 18 1 17 19
M  V30 19 1 19 20
M  V30 20 1 20 21
M  V30 21 1 21 22
M  V30 22 2 21 23
M  V30 23 2 21 24
M  V30 24 1 19 25
M  V30 25 1 25 26
M  V30 26 2 26 27
M  V30 27 1 27 28
M  V30 28 2 28 29
M  V30 29 1 29 30
M  V30 30 2 30 31
M  V30 31 1 25 32
M  V30 32 2 32 33
M  V30 33 1 33 34
M  V30 34 2 34 35
M  V30 35 1 35 36
M  V30 36 2 36 37
M  V30 37 1 7 38
M  V30 38 2 38 39
M  V30 39 1 39 4
M  V30 40 1 16 12
M  V30 41 1 31 26
M  V30 42 1 37 32
M  V30 43 1 1 40
M  V30 44 1 1 41
M  V30 45 1 3 42
M  V30 46 1 5 43
M  V30 47 1 6 44
M  V30 48 1 8 45
M  V30 49 1 8 46
M  V30 50 1 9 47
M  V30 51 1 12 48 CFG=3
M  V30 52 1 13 49
M  V30 53 1 13 50
M  V30 54 1 14 51
M  V30 55 1 14 52
M  V30 56 1 15 53
M  V30 57 1 15 54
M  V30 58 1 19 55 CFG=1
M  V30 59 1 20 56
M  V30 60 1 22 57
M  V30 61 1 22 58
M  V30 62 1 25 59
M  V30 63 1 27 60
M  V30 64 1 28 61
M  V30 65 1 29 62
M  V30 66 1 30 63
M  V30 67 1 31 64
M  V30 68 1 33 65
M  V30 69 1 34 66
M  V30 70 1 35 67
M  V30 71 1 36 68
M  V30 72 1 37 69
M  V30 73 1 38 70
M  V30 74 1 39 71
M  V30 END BOND
M  V30 END CTAB
M  END
