
     RDKit          3D

  0  0  0  0  0  0  0  0  0  0999 V3000
M  V30 BEGIN CTAB
M  V30 COUNTS 37 39 0 0 0
M  V30 BEGIN ATOM
M  V30 1 C -2.14117 -1.83676 1.54979 0
M  V30 2 N -1.96216 -1.20741 0.245036 0
M  V30 3 C -0.919198 -1.66623 -0.631679 0
M  V30 4 C 0.44426 -1.34522 -0.175275 0
M  V30 5 N 1.1263 -0.312593 -0.726411 0
M  V30 6 C 2.36357 0.0411961 -0.347087 0
M  V30 7 C 3.01979 -0.64266 0.646326 0
M  V30 8 C 2.36587 -1.71006 1.2441 0
M  V30 9 C 1.07555 -2.0464 0.818309 0
M  V30 10 N 4.25097 -0.248364 0.995391 0
M  V30 11 C 4.89097 0.784683 0.429753 0
M  V30 12 N 6.19798 1.1681 0.836476 0
M  V30 13 N 4.24236 1.45842 -0.550612 0
M  V30 14 C 3.02722 1.11816 -0.9398 0
M  V30 15 N 2.34287 1.81732 -1.97643 0
M  V30 16 C -2.83705 -0.141376 -0.0921337 0
M  V30 17 C -2.68731 1.06282 0.577799 0
M  V30 18 C -3.49358 2.13733 0.280554 0
M  V30 19 C -4.47412 2.06096 -0.686733 0
M  V30 20 Cl -5.45985 3.46407 -1.01053 0
M  V30 21 C -4.63344 0.869029 -1.36086 0
M  V30 22 Cl -5.87113 0.764127 -2.59058 0
M  V30 23 C -3.81461 -0.214065 -1.05512 0
M  V30 24 H -1.72559 -2.86994 1.57999 0
M  V30 25 H -1.73558 -1.2012 2.34407 0
M  V30 26 H -3.24585 -1.98745 1.7403 0
M  V30 27 H -0.988101 -2.77392 -0.752085 0
M  V30 28 H -1.13885 -1.22502 -1.63951 0
M  V30 29 H 2.85939 -2.2662 2.02963 0
M  V30 30 H 0.627926 -2.89169 1.32781 0
M  V30 31 H 7.02188 0.823727 0.323659 0
M  V30 32 H 6.29929 1.79554 1.64745 0
M  V30 33 H 2.18729 1.39191 -2.90317 0
M  V30 34 H 2.00678 2.77544 -1.75566 0
M  V30 35 H -1.92156 1.12258 1.33531 0
M  V30 36 H -3.35145 3.06014 0.820719 0
M  V30 37 H -3.94965 -1.12899 -1.58401 0
M  V30 END ATOM
M  V30 BEGIN BOND
M  V30 1 1 1 2
M  V30 2 1 2 3
M  V30 3 1 3 4
M  V30 4 2 4 5
M  V30 5 1 5 6
M  V30 6 2 6 7
M  V30 7 1 7 8
M  V30 8 2 8 9
M  V30 9 1 7 10
M  V30 10 2 10 11
M  V30 11 1 11 12
M  V30 12 1 11 13
M  V30 13 2 13 14
M  V30 14 1 14 15
M  V30 15 1 2 16
M  V30 16 2 16 17
M  V30 17 1 17 18
M  V30 18 2 18 19
M  V30 19 1 19 20
M  V30 20 1 19 21
M  V30 21 1 21 22
M  V30 22 2 21 23
M  V30 23 1 9 4
M  V30 24 1 23 16
M  V30 25 1 14 6
M  V30 26 1 1 24
M  V30 27 1 1 25
M  V30 28 1 1 26
M  V30 29 1 3 27
M  V30 30 1 3 28
M  V30 31 1 8 29
M  V30 32 1 9 30
M  V30 33 1 12 31
M  V30 34 1 12 32
M  V30 35 1 15 33
M  V30 36 1 15 34
M  V30 37 1 17 35
M  V30 38 1 18 36
M  V30 39 1 23 37
M  V30 END BOND
M  V30 END CTAB
M  END
