
     RDKit          3D

  0  0  0  0  0  0  0  0  0  0999 V3000
M  V30 BEGIN CTAB
M  V30 COUNTS 36 38 0 0 0
M  V30 BEGIN ATOM
M  V30 1 C -3.6666 -3.22641 -0.73781 0
M  V30 2 C -2.62763 -2.69499 -0.111656 0
M  V30 3 C -2.8397 -1.60745 0.841914 0
M  V30 4 N -2.22215 -0.365108 0.594117 0
M  V30 5 C -1.04225 0.00555544 1.08424 0
M  V30 6 S -0.140132 -1.21682 2.07102 0
M  V30 7 C 1.02265 -2.02784 0.936956 0
M  V30 8 C 2.08409 -1.08221 0.500204 0
M  V30 9 N 3.2537 -0.919078 1.13728 0
M  V30 10 C 4.17337 -0.0396826 0.69297 0
M  V30 11 N 5.38665 0.103092 1.39436 0
M  V30 12 N 3.91883 0.689488 -0.406669 0
M  V30 13 C 2.74988 0.555267 -1.07947 0
M  V30 14 N 1.86864 -0.339263 -0.589511 0
M  V30 15 N 2.48064 1.32748 -2.24123 0
M  V30 16 N -0.486833 1.20721 0.856367 0
M  V30 17 C -1.09133 2.17531 0.0865722 0
M  V30 18 C -2.30491 1.81907 -0.430167 0
M  V30 19 C -2.86164 0.559778 -0.176325 0
M  V30 20 O -3.95624 0.301501 -0.670653 0
M  V30 21 S -2.7744 3.20274 -1.31243 0
M  V30 22 C -1.42569 4.19397 -1.00533 0
M  V30 23 C -0.631162 3.41095 -0.211347 0
M  V30 24 H -4.69033 -2.86073 -0.550981 0
M  V30 25 H -3.56815 -4.02221 -1.44407 0
M  V30 26 H -1.66374 -3.09511 -0.331988 0
M  V30 27 H -2.57691 -2.02558 1.86538 0
M  V30 28 H -3.95037 -1.38581 0.973983 0
M  V30 29 H 1.51886 -2.91144 1.39071 0
M  V30 30 H 0.465851 -2.31222 0.0276015 0
M  V30 31 H 6.20204 -0.519541 1.20424 0
M  V30 32 H 5.54698 0.826127 2.13407 0
M  V30 33 H 3.06685 1.34794 -3.09249 0
M  V30 34 H 1.62374 1.91813 -2.22907 0
M  V30 35 H -1.20131 5.22542 -1.34336 0
M  V30 36 H 0.358702 3.78246 0.172544 0
M  V30 END ATOM
M  V30 BEGIN BOND
M  V30 1 2 1 2 CFG=2
M  V30 2 1 2 3
M  V30 3 1 3 4
M  V30 4 1 4 5
M  V30 5 1 5 6
M  V30 6 1 6 7
M  V30 7 1 7 8
M  V30 8 2 8 9
M  V30 9 1 9 10
M  V30 10 1 10 11
M  V30 11 2 10 12
M  V30 12 1 12 13
M  V30 13 2 13 14
M  V30 14 1 13 15
M  V30 15 2 5 16
M  V30 16 1 16 17
M  V30 17 2 17 18
M  V30 18 1 18 19
M  V30 19 2 19 20
M  V30 20 1 18 21
M  V30 21 1 21 22
M  V30 22 2 22 23
M  V30 23 1 19 4
M  V30 24 1 14 8
M  V30 25 1 23 17
M  V30 26 1 1 24
M  V30 27 1 1 25
M  V30 28 1 2 26
M  V30 29 1 3 27
M  V30 30 1 3 28
M  V30 31 1 7 29
M  V30 32 1 7 30
M  V30 33 1 11 31
M  V30 34 1 11 32
M  V30 35 1 15 33
M  V30 36 1 15 34
M  V30 37 1 22 35
M  V30 38 1 23 36
M  V30 END BOND
M  V30 END CTAB
M  END
