
     RDKit          3D

  0  0  0  0  0  0  0  0  0  0999 V3000
M  V30 BEGIN CTAB
M  V30 COUNTS 21 21 0 0 0
M  V30 BEGIN ATOM
M  V30 1 N 3.18122 -1.21817 -0.0724881 0
M  V30 2 C 2.35939 -0.797517 1.03404 0
M  V30 3 C 1.13197 -0.0827532 0.578248 0
M  V30 4 C 1.15444 1.28744 0.412834 0
M  V30 5 C 0.00883359 1.94993 -0.0120755 0
M  V30 6 O 0.0223368 3.20343 -0.1655 0
M  V30 7 N -1.12101 1.23235 -0.258931 0
M  V30 8 C -1.13287 -0.102542 -0.0947854 0
M  V30 9 N -0.0193338 -0.730746 0.316255 0
M  V30 10 C -2.40094 -0.848259 -0.37944 0
M  V30 11 N -3.44862 0.0281704 -0.805553 0
M  V30 12 H 3.61052 -2.13276 0.18423 0
M  V30 13 H 3.97459 -0.53484 -0.135505 0
M  V30 14 H 2.07449 -1.67519 1.67906 0
M  V30 15 H 2.8955 -0.0967313 1.71543 0
M  V30 16 H 2.0659 1.85883 0.612923 0
M  V30 17 H -1.98727 1.73718 -0.58071 0
M  V30 18 H -2.69355 -1.33816 0.590048 0
M  V30 19 H -2.20352 -1.68815 -1.09311 0
M  V30 20 H -4.29143 -0.558981 -0.992666 0
M  V30 21 H -3.18062 0.507471 -1.68756 0
M  V30 END ATOM
M  V30 BEGIN BOND
M  V30 1 1 1 2
M  V30 2 1 2 3
M  V30 3 2 3 4
M  V30 4 1 4 5
M  V30 5 2 5 6
M  V30 6 1 5 7
M  V30 7 1 7 8
M  V30 8 2 8 9
M  V30 9 1 8 10
M  V30 10 1 10 11
M  V30 11 1 9 3
M  V30 12 1 1 12
M  V30 13 1 1 13
M  V30 14 1 2 14
M  V30 15 1 2 15
M  V30 16 1 4 16
M  V30 17 1 7 17
M  V30 18 1 10 18
M  V30 19 1 10 19
M  V30 20 1 11 20
M  V30 21 1 11 21
M  V30 END BOND
M  V30 END CTAB
M  END
