
     RDKit          3D

  0  0  0  0  0  0  0  0  0  0999 V3000
M  V30 BEGIN CTAB
M  V30 COUNTS 41 41 0 0 0
M  V30 BEGIN ATOM
M  V30 1 N 5.35302 1.78015 1.37511 0
M  V30 2 C 4.19587 1.24162 0.653522 0
M  V30 3 C 4.48247 -0.12639 0.155753 0
M  V30 4 C 3.35289 -0.74008 -0.590899 0
M  V30 5 C 2.13429 -0.928856 0.20748 0
M  V30 6 O 2.16688 -0.789711 1.44714 0
M  V30 7 N 0.864069 -1.28127 -0.398988 0
M  V30 8 C -0.311503 -1.46265 0.399676 0
M  V30 9 C -1.41486 -0.535963 0.16234 0
M  V30 10 C -1.96809 -0.236281 -1.05889 0
M  V30 11 C -3.02065 0.676324 -1.16794 0
M  V30 12 C -3.55209 1.31361 -0.0775792 0
M  V30 13 C -3.00201 1.016 1.14348 0
M  V30 14 C -1.9677 0.121043 1.26075 0
M  V30 15 S -4.8639 2.46171 -0.144546 0
M  V30 16 O -4.66573 3.45662 0.98377 0
M  V30 17 O -4.81441 3.26209 -1.42877 0
M  V30 18 N -6.39825 1.71562 0.0116003 0
M  V30 19 C -0.708776 -2.9158 0.330195 0
M  V30 20 C 0.904727 -1.45197 -1.83691 0
M  V30 21 H 6.22379 1.36471 0.995092 0
M  V30 22 H 5.36572 2.81564 1.35114 0
M  V30 23 H 4.00679 1.92385 -0.228065 0
M  V30 24 H 3.31535 1.2792 1.29032 0
M  V30 25 H 4.78954 -0.825743 0.978694 0
M  V30 26 H 5.36235 -0.0518619 -0.533644 0
M  V30 27 H 3.15385 -0.109309 -1.49801 0
M  V30 28 H 3.66406 -1.76365 -0.955676 0
M  V30 29 H 0.0320059 -1.30548 1.46864 0
M  V30 30 H -1.60432 -0.706581 -1.93804 0
M  V30 31 H -3.44365 0.899005 -2.14672 0
M  V30 32 H -3.37757 1.49 2.06903 0
M  V30 33 H -1.5454 -0.10019 2.25859 0
M  V30 34 H -6.98901 2.26621 0.695325 0
M  V30 35 H -6.26535 0.725522 0.309002 0
M  V30 36 H 0.192721 -3.51144 0.617726 0
M  V30 37 H -0.984643 -3.24592 -0.683917 0
M  V30 38 H -1.47553 -3.12563 1.08768 0
M  V30 39 H 0.720374 -0.491058 -2.31583 0
M  V30 40 H 1.91298 -1.86665 -2.11414 0
M  V30 41 H 0.179678 -2.23645 -2.13346 0
M  V30 END ATOM
M  V30 BEGIN BOND
M  V30 1 1 1 2
M  V30 2 1 2 3
M  V30 3 1 3 4
M  V30 4 1 4 5
M  V30 5 2 5 6
M  V30 6 1 5 7
M  V30 7 1 7 8
M  V30 8 1 8 9
M  V30 9 2 9 10
M  V30 10 1 10 11
M  V30 11 2 11 12
M  V30 12 1 12 13
M  V30 13 2 13 14
M  V30 14 1 12 15
M  V30 15 2 15 16
M  V30 16 2 15 17
M  V30 17 1 15 18
M  V30 18 1 8 19
M  V30 19 1 7 20
M  V30 20 1 14 9
M  V30 21 1 1 21
M  V30 22 1 1 22
M  V30 23 1 2 23
M  V30 24 1 2 24
M  V30 25 1 3 25
M  V30 26 1 3 26
M  V30 27 1 4 27
M  V30 28 1 4 28
M  V30 29 1 8 29
M  V30 30 1 10 30
M  V30 31 1 11 31
M  V30 32 1 13 32
M  V30 33 1 14 33
M  V30 34 1 18 34
M  V30 35 1 18 35
M  V30 36 1 19 36
M  V30 37 1 19 37
M  V30 38 1 19 38
M  V30 39 1 20 39
M  V30 40 1 20 40
M  V30 41 1 20 41
M  V30 END BOND
M  V30 END CTAB
M  END
