
     RDKit          3D

  0  0  0  0  0  0  0  0  0  0999 V3000
M  V30 BEGIN CTAB
M  V30 COUNTS 67 70 0 0 0
M  V30 BEGIN ATOM
M  V30 1 C 0.492833 -2.53574 -3.2016 0
M  V30 2 C 0.9128 -1.21108 -2.66222 0
M  V30 3 C 1.00885 -1.0277 -1.29237 0
M  V30 4 C 1.39606 0.190515 -0.76215 0
M  V30 5 C 1.67528 1.19111 -1.65027 0
M  V30 6 C 1.58417 1.023 -3.0137 0
M  V30 7 C 1.19945 -0.18741 -3.54633 0
M  V30 8 C 1.49315 0.335105 0.68536 0
M  V30 9 C 0.548006 1.27149 1.33615 0
M  V30 10 C -0.873606 0.934508 1.14987 0
M  V30 11 C -1.57354 1.48672 0.0981866 0
M  V30 12 C -2.90961 1.15242 -0.0772176 0
M  V30 13 C -3.57767 0.286873 0.757146 0
M  V30 14 C -2.87298 -0.253544 1.79624 0
M  V30 15 C -1.53877 0.0765332 1.9761 0
M  V30 16 N -4.9802 -0.0113179 0.512277 0
M  V30 17 C -5.95701 0.77654 1.14546 0
M  V30 18 N -5.46126 1.81631 2.0083 0
M  V30 19 N -7.22622 0.607509 0.986143 0
M  V30 20 C -7.60288 -0.45598 0.10533 0
M  V30 21 N -8.98477 -0.73466 -0.148177 0
M  V30 22 N -6.76107 -1.19591 -0.488802 0
M  V30 23 C -5.36124 -1.07372 -0.364696 0
M  V30 24 C -4.87226 -2.43173 0.197658 0
M  V30 25 C -4.66033 -0.9581 -1.71779 0
M  V30 26 C 2.90418 0.797483 0.975078 0
M  V30 27 O 3.02723 1.88366 1.54745 0
M  V30 28 N 3.9913 0.00167608 0.595265 0
M  V30 29 C 5.3468 0.285931 0.797481 0
M  V30 30 C 6.32536 -0.392594 0.0348223 0
M  V30 31 C 7.65312 -0.17615 0.202175 0
M  V30 32 C 8.05698 0.733006 1.14427 0
M  V30 33 C 7.14983 1.41206 1.90451 0
M  V30 34 C 5.78699 1.18282 1.72598 0
M  V30 35 S 9.74801 1.03202 1.38586 0
M  V30 36 F 10.2831 -0.040769 2.56315 0
M  V30 37 O 9.98118 2.45285 1.82163 0
M  V30 38 O 10.4767 0.728192 0.0918109 0
M  V30 39 H 0.804612 -2.62174 -4.24348 0
M  V30 40 H 0.965851 -3.35302 -2.61138 0
M  V30 41 H -0.625474 -2.56673 -3.11389 0
M  V30 42 H 0.7816 -1.84063 -0.614852 0
M  V30 43 H 1.9866 2.17843 -1.29561 0
M  V30 44 H 1.80488 1.81424 -3.7114 0
M  V30 45 H 1.1139 -0.368762 -4.6179 0
M  V30 46 H 1.34326 -0.662615 1.18471 0
M  V30 47 H 0.744083 1.22163 2.44042 0
M  V30 48 H 0.699633 2.33607 1.06077 0
M  V30 49 H -1.07536 2.1786 -0.576361 0
M  V30 50 H -3.44641 1.58623 -0.900443 0
M  V30 51 H -3.36458 -0.940739 2.47711 0
M  V30 52 H -1.02909 -0.368892 2.79893 0
M  V30 53 H -5.51704 2.81589 1.79567 0
M  V30 54 H -5.02386 1.48726 2.89778 0
M  V30 55 H -9.61872 0.0521628 -0.305971 0
M  V30 56 H -9.29247 -1.71007 -0.163079 0
M  V30 57 H -5.46188 -2.75273 1.06169 0
M  V30 58 H -4.99866 -3.21327 -0.598791 0
M  V30 59 H -3.81702 -2.3642 0.493538 0
M  V30 60 H -3.58728 -1.15113 -1.52368 0
M  V30 61 H -5.03147 -1.80673 -2.32924 0
M  V30 62 H -4.87214 -0.0071409 -2.20845 0
M  V30 63 H 3.79523 -0.94334 0.0906069 0
M  V30 64 H 5.98972 -1.10944 -0.708828 0
M  V30 65 H 8.34625 -0.735559 -0.419199 0
M  V30 66 H 7.4437 2.12571 2.64522 0
M  V30 67 H 5.11408 1.74858 2.3777 0
M  V30 END ATOM
M  V30 BEGIN BOND
M  V30 1 1 1 2
M  V30 2 2 2 3
M  V30 3 1 3 4
M  V30 4 2 4 5
M  V30 5 1 5 6
M  V30 6 2 6 7
M  V30 7 1 4 8
M  V30 8 1 8 9
M  V30 9 1 9 10
M  V30 10 2 10 11
M  V30 11 1 11 12
M  V30 12 2 12 13
M  V30 13 1 13 14
M  V30 14 2 14 15
M  V30 15 1 13 16
M  V30 16 1 16 17
M  V30 17 1 17 18
M  V30 18 2 17 19
M  V30 19 1 19 20
M  V30 20 1 20 21
M  V30 21 2 20 22
M  V30 22 1 22 23
M  V30 23 1 23 24
M  V30 24 1 23 25
M  V30 25 1 8 26
M  V30 26 2 26 27
M  V30 27 1 26 28
M  V30 28 1 28 29
M  V30 29 2 29 30
M  V30 30 1 30 31
M  V30 31 2 31 32
M  V30 32 1 32 33
M  V30 33 2 33 34
M  V30 34 1 32 35
M  V30 35 1 35 36
M  V30 36 2 35 37
M  V30 37 2 35 38
M  V30 38 1 7 2
M  V30 39 1 15 10
M  V30 40 1 23 16
M  V30 41 1 34 29
M  V30 42 1 1 39
M  V30 43 1 1 40
M  V30 44 1 1 41
M  V30 45 1 3 42
M  V30 46 1 5 43
M  V30 47 1 6 44
M  V30 48 1 7 45
M  V30 49 1 8 46
M  V30 50 1 9 47
M  V30 51 1 9 48
M  V30 52 1 11 49
M  V30 53 1 12 50
M  V30 54 1 14 51
M  V30 55 1 15 52
M  V30 56 1 18 53
M  V30 57 1 18 54
M  V30 58 1 21 55
M  V30 59 1 21 56
M  V30 60 1 24 57
M  V30 61 1 24 58
M  V30 62 1 24 59
M  V30 63 1 25 60
M  V30 64 1 25 61
M  V30 65 1 25 62
M  V30 66 1 28 63
M  V30 67 1 30 64
M  V30 68 1 31 65
M  V30 69 1 33 66
M  V30 70 1 34 67
M  V30 END BOND
M  V30 END CTAB
M  END
