
     RDKit          3D

  0  0  0  0  0  0  0  0  0  0999 V3000
M  V30 BEGIN CTAB
M  V30 COUNTS 26 27 0 0 0
M  V30 BEGIN ATOM
M  V30 1 Br 5.86397 -1.33049 -0.248248 0
M  V30 2 C 4.00213 -0.967887 -0.186651 0
M  V30 3 C 3.29025 -1.37631 0.903771 0
M  V30 4 C 1.95285 -1.13002 0.975696 0
M  V30 5 C 1.27852 -0.467812 -0.0372904 0
M  V30 6 C 1.9898 -0.0451575 -1.15523 0
M  V30 7 C 3.32446 -0.307019 -1.19564 0
M  V30 8 C -0.155401 -0.221504 0.074458 0
M  V30 9 N -1.11744 -1.07988 0.470221 0
M  V30 10 C -2.31369 -0.457061 0.432621 0
M  V30 11 N -2.14263 0.809504 0.0131293 0
M  V30 12 C -0.800169 0.944909 -0.206167 0
M  V30 13 N -0.208922 2.13762 -0.657845 0
M  V30 14 N -3.12379 1.7837 -0.162964 0
M  V30 15 C -3.59815 -1.08746 0.799415 0
M  V30 16 H 3.75386 -1.90386 1.74117 0
M  V30 17 H 1.38278 -1.45827 1.85122 0
M  V30 18 H 1.43661 0.469632 -1.93074 0
M  V30 19 H 3.89439 0.0162246 -2.06134 0
M  V30 20 H -0.164316 2.30051 -1.68906 0
M  V30 21 H 0.192312 2.88019 -0.050614 0
M  V30 22 H -4.10636 1.53707 -0.386282 0
M  V30 23 H -2.88231 2.78875 -0.0717924 0
M  V30 24 H -3.86302 -1.91068 0.0908757 0
M  V30 25 H -4.40978 -0.347576 0.89713 0
M  V30 26 H -3.47595 -1.57712 1.79015 0
M  V30 END ATOM
M  V30 BEGIN BOND
M  V30 1 1 1 2
M  V30 2 2 2 3
M  V30 3 1 3 4
M  V30 4 2 4 5
M  V30 5 1 5 6
M  V30 6 2 6 7
M  V30 7 1 5 8
M  V30 8 1 8 9
M  V30 9 2 9 10
M  V30 10 1 10 11
M  V30 11 1 11 12
M  V30 12 1 12 13
M  V30 13 1 11 14
M  V30 14 1 10 15
M  V30 15 1 7 2
M  V30 16 2 12 8
M  V30 17 1 3 16
M  V30 18 1 4 17
M  V30 19 1 6 18
M  V30 20 1 7 19
M  V30 21 1 13 20
M  V30 22 1 13 21
M  V30 23 1 14 22
M  V30 24 1 14 23
M  V30 25 1 15 24
M  V30 26 1 15 25
M  V30 27 1 15 26
M  V30 END BOND
M  V30 END CTAB
M  END
