
     RDKit          3D

  0  0  0  0  0  0  0  0  0  0999 V3000
M  V30 BEGIN CTAB
M  V30 COUNTS 42 44 0 0 0
M  V30 BEGIN ATOM
M  V30 1 N -5.77779 -0.814376 1.16245 0
M  V30 2 C -4.9232 -0.189272 0.218674 0
M  V30 3 N -3.62893 -0.0899081 0.494249 0
M  V30 4 C -2.76031 0.487458 -0.348748 0
M  V30 5 C -3.20633 0.998042 -1.54033 0
M  V30 6 C -4.53259 0.914067 -1.85862 0
M  V30 7 C -5.39284 0.314651 -0.968184 0
M  V30 8 N -6.77477 0.198549 -1.24376 0 CHG=1
M  V30 9 O -7.15841 0.151427 -2.41588 0
M  V30 10 O -7.66423 0.140421 -0.226201 0 CHG=-1
M  V30 11 N -1.39042 0.54571 0.0369325 0
M  V30 12 C -0.464908 1.17505 -0.853252 0
M  V30 13 C 0.933661 1.25233 -0.290946 0
M  V30 14 N 1.31015 -0.00340639 0.36169 0
M  V30 15 C 0.308031 -0.864816 0.948826 0
M  V30 16 C -0.918406 -0.00173578 1.27816 0
M  V30 17 C 2.69739 -0.310855 0.379352 0
M  V30 18 C 3.17305 -1.48194 0.946063 0
M  V30 19 C 4.52558 -1.79749 0.973068 0
M  V30 20 C 5.45165 -0.934561 0.424371 0
M  V30 21 C 4.94599 0.229319 -0.135648 0
M  V30 22 N 3.62964 0.501947 -0.143708 0
M  V30 23 N 5.83638 1.16662 -0.720087 0
M  V30 24 N 6.84508 -1.21359 0.428172 0 CHG=1
M  V30 25 O 7.2012 -2.40526 0.4468 0
M  V30 26 O 7.83141 -0.26179 0.413721 0 CHG=-1
M  V30 27 H -5.81503 -0.450152 2.13616 0
M  V30 28 H -6.37946 -1.63205 0.925708 0
M  V30 29 H -2.48332 1.46662 -2.21734 0
M  V30 30 H -4.91793 1.30501 -2.78701 0
M  V30 31 H -0.479244 0.650527 -1.81658 0
M  V30 32 H -0.806977 2.24398 -0.978688 0
M  V30 33 H 1.10269 2.08867 0.38458 0
M  V30 34 H 1.61727 1.37899 -1.1685 0
M  V30 35 H -0.045845 -1.62488 0.210487 0
M  V30 36 H 0.651725 -1.40484 1.85011 0
M  V30 37 H -0.564914 0.759821 1.99978 0
M  V30 38 H -1.67831 -0.611419 1.80162 0
M  V30 39 H 2.46436 -2.18666 1.38861 0
M  V30 40 H 4.89616 -2.71592 1.41778 0
M  V30 41 H 6.04513 1.10003 -1.73658 0
M  V30 42 H 6.29763 1.9257 -0.181909 0
M  V30 END ATOM
M  V30 BEGIN BOND
M  V30 1 1 1 2
M  V30 2 2 2 3
M  V30 3 1 3 4
M  V30 4 2 4 5
M  V30 5 1 5 6
M  V30 6 2 6 7
M  V30 7 1 7 8
M  V30 8 2 8 9
M  V30 9 1 8 10
M  V30 10 1 4 11
M  V30 11 1 11 12
M  V30 12 1 12 13
M  V30 13 1 13 14
M  V30 14 1 14 15
M  V30 15 1 15 16
M  V30 16 1 14 17
M  V30 17 2 17 18
M  V30 18 1 18 19
M  V30 19 2 19 20
M  V30 20 1 20 21
M  V30 21 2 21 22
M  V30 22 1 21 23
M  V30 23 1 20 24
M  V30 24 2 24 25
M  V30 25 1 24 26
M  V30 26 1 7 2
M  V30 27 1 16 11
M  V30 28 1 22 17
M  V30 29 1 1 27
M  V30 30 1 1 28
M  V30 31 1 5 29
M  V30 32 1 6 30
M  V30 33 1 12 31
M  V30 34 1 12 32
M  V30 35 1 13 33
M  V30 36 1 13 34
M  V30 37 1 15 35
M  V30 38 1 15 36
M  V30 39 1 16 37
M  V30 40 1 16 38
M  V30 41 1 18 39
M  V30 42 1 19 40
M  V30 43 1 23 41
M  V30 44 1 23 42
M  V30 END BOND
M  V30 END CTAB
M  END
