
     RDKit          3D

  0  0  0  0  0  0  0  0  0  0999 V3000
M  V30 BEGIN CTAB
M  V30 COUNTS 30 31 0 0 0
M  V30 BEGIN ATOM
M  V30 1 N 3.88631 1.53483 1.614 0
M  V30 2 C 3.10958 0.758266 0.716026 0
M  V30 3 C 3.51489 0.635369 -0.607014 0
M  V30 4 C 2.75755 -0.120518 -1.47819 0
M  V30 5 C 1.60992 -0.734203 -0.994384 0
M  V30 6 C 1.20034 -0.617206 0.318181 0
M  V30 7 C 1.96683 0.142545 1.18199 0
M  V30 8 C -0.0315046 -1.28386 0.81013 0
M  V30 9 O -0.105824 -2.60122 0.356365 0
M  V30 10 C -1.26083 -0.518873 0.449143 0
M  V30 11 C -1.79963 -0.611391 -0.813414 0
M  V30 12 C -2.94579 0.0856587 -1.1919 0
M  V30 13 N -3.47875 -0.032052 -2.5084 0
M  V30 14 C -3.56602 0.899853 -0.268707 0
M  V30 15 C -3.03776 1.0052 1.00695 0
M  V30 16 C -1.90346 0.303765 1.35158 0
M  V30 17 H 4.21454 2.47586 1.3362 0
M  V30 18 H 4.13594 1.17638 2.55461 0
M  V30 19 H 4.43024 1.13352 -0.963505 0
M  V30 20 H 3.07082 -0.21864 -2.51141 0
M  V30 21 H 1.03335 -1.32264 -1.70168 0
M  V30 22 H 1.70803 0.280466 2.22847 0
M  V30 23 H -0.00094776 -1.30026 1.9227 0
M  V30 24 H -0.385931 -3.20217 1.10657 0
M  V30 25 H -1.36228 -1.23464 -1.59112 0
M  V30 26 H -2.82815 0.197859 -3.29624 0
M  V30 27 H -4.46125 -0.332345 -2.62117 0
M  V30 28 H -4.45889 1.46422 -0.508388 0
M  V30 29 H -3.52888 1.65046 1.73942 0
M  V30 30 H -1.48246 0.385765 2.3632 0
M  V30 END ATOM
M  V30 BEGIN BOND
M  V30 1 1 1 2
M  V30 2 2 2 3
M  V30 3 1 3 4
M  V30 4 2 4 5
M  V30 5 1 5 6
M  V30 6 2 6 7
M  V30 7 1 6 8
M  V30 8 1 8 9
M  V30 9 1 8 10
M  V30 10 2 10 11
M  V30 11 1 11 12
M  V30 12 1 12 13
M  V30 13 2 12 14
M  V30 14 1 14 15
M  V30 15 2 15 16
M  V30 16 1 7 2
M  V30 17 1 16 10
M  V30 18 1 1 17
M  V30 19 1 1 18
M  V30 20 1 3 19
M  V30 21 1 4 20
M  V30 22 1 5 21
M  V30 23 1 7 22
M  V30 24 1 8 23
M  V30 25 1 9 24
M  V30 26 1 11 25
M  V30 27 1 13 26
M  V30 28 1 13 27
M  V30 29 1 14 28
M  V30 30 1 15 29
M  V30 31 1 16 30
M  V30 END BOND
M  V30 END CTAB
M  END
