
     RDKit          3D

  0  0  0  0  0  0  0  0  0  0999 V3000
M  V30 BEGIN CTAB
M  V30 COUNTS 17 17 0 0 0
M  V30 BEGIN ATOM
M  V30 1 Cl -0.85806 3.73208 0.0267623 0
M  V30 2 C -0.358979 2.03414 -0.0591534 0
M  V30 3 C -1.2554 1.09318 -0.235708 0
M  V30 4 C -1.0137 -0.348433 -0.328657 0
M  V30 5 N -1.85935 -1.07408 0.592128 0
M  V30 6 N 0.369721 -0.645106 -0.201156 0
M  V30 7 C 1.30985 0.396085 -0.0114971 0
M  V30 8 N 1.00195 1.65805 0.0592704 0
M  V30 9 N 2.70975 0.0333137 0.112324 0
M  V30 10 O 0.874242 -1.91158 -0.25065 0
M  V30 11 H -2.28769 1.42311 -0.321832 0
M  V30 12 H -1.35475 -0.676265 -1.35923 0
M  V30 13 H -1.49613 -2.02063 0.830899 0
M  V30 14 H -2.81806 -1.10703 0.21685 0
M  V30 15 H 3.29788 -0.00760302 -0.730714 0
M  V30 16 H 3.03013 -0.166449 1.07786 0
M  V30 17 H 0.708591 -2.41278 0.582505 0
M  V30 END ATOM
M  V30 BEGIN BOND
M  V30 1 1 1 2
M  V30 2 2 2 3
M  V30 3 1 3 4
M  V30 4 1 4 5
M  V30 5 1 4 6
M  V30 6 1 6 7
M  V30 7 2 7 8
M  V30 8 1 7 9
M  V30 9 1 6 10
M  V30 10 1 8 2
M  V30 11 1 3 11
M  V30 12 1 4 12
M  V30 13 1 5 13
M  V30 14 1 5 14
M  V30 15 1 9 15
M  V30 16 1 9 16
M  V30 17 1 10 17
M  V30 END BOND
M  V30 END CTAB
M  END
