
     RDKit          3D

  0  0  0  0  0  0  0  0  0  0999 V3000
M  V30 BEGIN CTAB
M  V30 COUNTS 39 40 0 0 0
M  V30 BEGIN ATOM
M  V30 1 O -6.43366 0.624584 0.43935 0
M  V30 2 C -6.0106 0.344222 -0.854628 0
M  V30 3 C -4.52505 0.0696617 -0.904062 0
M  V30 4 C -3.81904 1.30061 -0.401035 0
M  V30 5 C -2.3171 1.14211 -0.404941 0
M  V30 6 N -1.8922 0.0418396 0.436783 0
M  V30 7 C -0.541242 -0.322044 0.610038 0
M  V30 8 C 0.480849 0.364375 -0.0268684 0
M  V30 9 C 1.79147 -0.0176983 0.164415 0
M  V30 10 N 2.01724 -1.06065 0.977648 0
M  V30 11 C 1.0584 -1.73768 1.60157 0
M  V30 12 N -0.20974 -1.35263 1.40422 0
M  V30 13 N 1.3876 -2.83076 2.44583 0
M  V30 14 C 2.94102 0.654272 -0.471633 0
M  V30 15 C 4.12515 0.950919 0.415458 0
M  V30 16 C 4.71557 -0.370957 -0.00302251 0
M  V30 17 C 3.80305 -0.347296 -1.20267 0
M  V30 18 N 6.11865 -0.301892 -0.378025 0
M  V30 19 H -6.22196 -0.160277 1.01178 0
M  V30 20 H -6.24092 1.2141 -1.52119 0
M  V30 21 H -6.54234 -0.54561 -1.2339 0
M  V30 22 H -4.26427 -0.0806852 -1.97114 0
M  V30 23 H -4.30069 -0.803996 -0.280453 0
M  V30 24 H -4.13201 1.41915 0.675639 0
M  V30 25 H -4.14426 2.1666 -0.982151 0
M  V30 26 H -1.94074 1.05429 -1.43752 0
M  V30 27 H -1.90911 2.07095 0.0852667 0
M  V30 28 H -2.63494 -0.491841 0.927463 0
M  V30 29 H 0.257539 1.20076 -0.675366 0
M  V30 30 H 2.35543 -3.16631 2.51784 0
M  V30 31 H 0.637389 -3.27907 2.98323 0
M  V30 32 H 2.66145 1.51689 -1.13079 0
M  V30 33 H 4.71084 1.79908 -0.0211116 0
M  V30 34 H 3.89352 1.05661 1.49178 0
M  V30 35 H 4.57256 -1.2116 0.708073 0
M  V30 36 H 4.31512 0.107458 -2.07504 0
M  V30 37 H 3.28621 -1.31023 -1.41749 0
M  V30 38 H 6.28335 0.278043 -1.2116 0
M  V30 39 H 6.66746 0.0147198 0.431653 0
M  V30 END ATOM
M  V30 BEGIN BOND
M  V30 1 1 1 2
M  V30 2 1 2 3
M  V30 3 1 3 4
M  V30 4 1 4 5
M  V30 5 1 5 6
M  V30 6 1 6 7
M  V30 7 2 7 8
M  V30 8 1 8 9
M  V30 9 2 9 10
M  V30 10 1 10 11
M  V30 11 2 11 12
M  V30 12 1 11 13
M  V30 13 1 9 14
M  V30 14 1 14 15
M  V30 15 1 15 16
M  V30 16 1 16 17
M  V30 17 1 16 18
M  V30 18 1 12 7
M  V30 19 1 17 14
M  V30 20 1 1 19
M  V30 21 1 2 20
M  V30 22 1 2 21
M  V30 23 1 3 22
M  V30 24 1 3 23
M  V30 25 1 4 24
M  V30 26 1 4 25
M  V30 27 1 5 26
M  V30 28 1 5 27
M  V30 29 1 6 28
M  V30 30 1 8 29
M  V30 31 1 13 30
M  V30 32 1 13 31
M  V30 33 1 14 32
M  V30 34 1 15 33
M  V30 35 1 15 34
M  V30 36 1 16 35
M  V30 37 1 17 36
M  V30 38 1 17 37
M  V30 39 1 18 38
M  V30 40 1 18 39
M  V30 END BOND
M  V30 END CTAB
M  END
