
     RDKit          3D

  0  0  0  0  0  0  0  0  0  0999 V3000
M  V30 BEGIN CTAB
M  V30 COUNTS 27 28 0 0 0
M  V30 BEGIN ATOM
M  V30 1 C -1.70785 -1.09122 1.16339 0
M  V30 2 N -1.31264 -0.022785 0.276095 0
M  V30 3 C 0.068404 0.147322 0.00296067 0
M  V30 4 N 0.503221 1.13164 -0.826017 0
M  V30 5 C 1.80275 1.31752 -1.10302 0
M  V30 6 C 2.75824 0.489342 -0.536281 0
M  V30 7 C 2.37152 -0.534392 0.319415 0
M  V30 8 C 1.02393 -0.672909 0.563377 0
M  V30 9 N 3.33488 -1.38906 0.906587 0
M  V30 10 N 4.1392 0.639108 -0.792543 0
M  V30 11 C -2.32559 0.831041 -0.298402 0
M  V30 12 C -3.38714 0.223382 -1.14558 0
M  V30 13 C -3.70249 0.876997 0.195409 0
M  V30 14 H -2.80461 -1.31676 1.0482 0
M  V30 15 H -1.21154 -2.0626 0.882681 0
M  V30 16 H -1.4501 -0.911246 2.21719 0
M  V30 17 H 2.14621 2.09726 -1.7596 0
M  V30 18 H 0.70669 -1.48127 1.24064 0
M  V30 19 H 3.03365 -2.27903 1.34746 0
M  V30 20 H 4.34289 -1.14817 0.908428 0
M  V30 21 H 4.79913 0.804526 -0.0182942 0
M  V30 22 H 4.48237 0.581457 -1.76291 0
M  V30 23 H -1.93492 1.80815 -0.713448 0
M  V30 24 H -3.58113 -0.855721 -1.14951 0
M  V30 25 H -3.71703 0.735361 -2.07187 0
M  V30 26 H -4.09524 0.255202 1.01735 0
M  V30 27 H -4.28279 1.82686 0.0882942 0
M  V30 END ATOM
M  V30 BEGIN BOND
M  V30 1 1 1 2
M  V30 2 1 2 3
M  V30 3 2 3 4
M  V30 4 1 4 5
M  V30 5 2 5 6
M  V30 6 1 6 7
M  V30 7 2 7 8
M  V30 8 1 7 9
M  V30 9 1 6 10
M  V30 10 1 2 11
M  V30 11 1 11 12
M  V30 12 1 12 13
M  V30 13 1 8 3
M  V30 14 1 13 11
M  V30 15 1 1 14
M  V30 16 1 1 15
M  V30 17 1 1 16
M  V30 18 1 5 17
M  V30 19 1 8 18
M  V30 20 1 9 19
M  V30 21 1 9 20
M  V30 22 1 10 21
M  V30 23 1 10 22
M  V30 24 1 11 23
M  V30 25 1 12 24
M  V30 26 1 12 25
M  V30 27 1 13 26
M  V30 28 1 13 27
M  V30 END BOND
M  V30 END CTAB
M  END
