
     RDKit          3D

  0  0  0  0  0  0  0  0  0  0999 V3000
M  V30 BEGIN CTAB
M  V30 COUNTS 44 45 0 0 0
M  V30 BEGIN ATOM
M  V30 1 O -1.85166 1.40611 1.13062 0
M  V30 2 C -1.3549 0.698393 0.221147 0
M  V30 3 N -2.29257 -0.0577115 -0.539451 0
M  V30 4 C -3.65219 -0.0984663 -0.322435 0
M  V30 5 C -4.32148 0.131637 0.845257 0
M  V30 6 C -5.69511 0.0854167 0.957184 0
M  V30 7 C -6.45799 -0.203223 -0.131223 0
M  V30 8 C -5.84175 -0.448665 -1.34786 0
M  V30 9 C -4.47254 -0.394905 -1.42641 0
M  V30 10 S -8.20666 -0.26126 0.0271232 0
M  V30 11 O -8.88173 -0.0594151 -1.2886 0
M  V30 12 O -8.65526 0.715141 1.06933 0
M  V30 13 N -8.61201 -1.85522 0.557769 0
M  V30 14 N -0.0260293 0.615897 -0.0656666 0
M  V30 15 C 1.28777 0.534379 -0.349176 0
M  V30 16 C 2.11629 -0.00988437 0.801789 0
M  V30 17 C 3.55832 -0.0518394 0.462108 0
M  V30 18 C 4.16506 -1.11644 -0.157111 0
M  V30 19 C 5.53401 -1.09618 -0.448584 0
M  V30 20 C 6.33048 -0.0188613 -0.131621 0
M  V30 21 C 5.71561 1.05371 0.493591 0
M  V30 22 C 4.36902 1.03295 0.779745 0
M  V30 23 S 8.05542 0.0178256 -0.485731 0
M  V30 24 O 8.59345 -1.34539 -0.254153 0
M  V30 25 O 8.73752 0.979812 0.484968 0
M  V30 26 N 8.36916 0.638104 -2.05428 0
M  V30 27 H -1.8888 -0.638914 -1.33958 0
M  V30 28 H -3.7304 0.341173 1.75466 0
M  V30 29 H -6.15955 0.27907 1.90428 0
M  V30 30 H -6.47497 -0.670295 -2.1826 0
M  V30 31 H -4.03484 -0.595807 -2.39404 0
M  V30 32 H -8.67721 -2.48176 -0.275061 0
M  V30 33 H -9.5069 -1.86281 1.1114 0
M  V30 34 H 0.265029 1.53709 0.957314 0
M  V30 35 H 1.44981 -0.148022 -1.26143 0
M  V30 36 H 1.72951 1.50262 -0.715505 0
M  V30 37 H 1.72384 -1.03142 1.03498 0
M  V30 38 H 1.94698 0.622182 1.67413 0
M  V30 39 H 3.57686 -1.96425 -0.416988 0
M  V30 40 H 6.00248 -1.94869 -0.938616 0
M  V30 41 H 6.36625 1.89584 0.738614 0
M  V30 42 H 3.91831 1.88893 1.27023 0
M  V30 43 H 9.33681 1.04296 -2.06461 0
M  V30 44 H 7.64654 1.34019 -2.30724 0
M  V30 END ATOM
M  V30 BEGIN BOND
M  V30 1 2 1 2
M  V30 2 1 2 3
M  V30 3 1 3 4
M  V30 4 2 4 5
M  V30 5 1 5 6
M  V30 6 2 6 7
M  V30 7 1 7 8
M  V30 8 2 8 9
M  V30 9 1 7 10
M  V30 10 2 10 11
M  V30 11 2 10 12
M  V30 12 1 10 13
M  V30 13 1 2 14
M  V30 14 1 14 15
M  V30 15 1 15 16
M  V30 16 1 16 17
M  V30 17 2 17 18
M  V30 18 1 18 19
M  V30 19 2 19 20
M  V30 20 1 20 21
M  V30 21 2 21 22
M  V30 22 1 20 23
M  V30 23 2 23 24
M  V30 24 2 23 25
M  V30 25 1 23 26
M  V30 26 1 9 4
M  V30 27 1 22 17
M  V30 28 1 3 27
M  V30 29 1 5 28
M  V30 30 1 6 29
M  V30 31 1 8 30
M  V30 32 1 9 31
M  V30 33 1 13 32
M  V30 34 1 13 33
M  V30 35 1 14 34
M  V30 36 1 15 35
M  V30 37 1 15 36
M  V30 38 1 16 37
M  V30 39 1 16 38
M  V30 40 1 18 39
M  V30 41 1 19 40
M  V30 42 1 21 41
M  V30 43 1 22 42
M  V30 44 1 26 43
M  V30 45 1 26 44
M  V30 END BOND
M  V30 END CTAB
M  END
