
     RDKit          3D

  0  0  0  0  0  0  0  0  0  0999 V3000
M  V30 BEGIN CTAB
M  V30 COUNTS 31 33 0 0 0
M  V30 BEGIN ATOM
M  V30 1 N -6.42557 0.368426 -0.454158 0
M  V30 2 C -6.13841 -0.711927 0.40127 0
M  V30 3 N -7.23664 -1.44533 0.930049 0
M  V30 4 N -4.96735 -1.10256 0.753432 0
M  V30 5 C -3.85627 -0.350476 0.210564 0
M  V30 6 N -2.57945 -0.566118 0.430309 0
M  V30 7 C -1.67981 0.191775 -0.125602 0
M  V30 8 C -2.13784 1.2044 -0.935043 0
M  V30 9 S -3.83603 0.99126 -0.836762 0
M  V30 10 C -0.230845 -0.0320768 0.107494 0
M  V30 11 O 0.196603 -0.957984 0.847946 0
M  V30 12 N 0.721325 0.800618 -0.504692 0
M  V30 13 C 2.12517 0.617845 -0.305496 0
M  V30 14 N 2.80876 -0.251881 0.401372 0
M  V30 15 C 4.11075 -0.205712 0.417626 0
M  V30 16 C 4.97859 -1.06877 1.12668 0
M  V30 17 C 6.31651 -0.891442 1.04192 0
M  V30 18 F 7.16642 -1.72715 1.7289 0
M  V30 19 C 6.95251 0.0900249 0.300792 0
M  V30 20 C 6.1083 0.932894 -0.391551 0
M  V30 21 C 4.72308 0.77203 -0.321547 0
M  V30 22 S 3.35243 1.57245 -1.00189 0
M  V30 23 H -6.50186 1.35988 -0.141149 0
M  V30 24 H -6.57448 0.187993 -1.46583 0
M  V30 25 H -7.74274 -1.05575 1.74357 0
M  V30 26 H -7.53141 -2.35176 0.516198 0
M  V30 27 H -1.55693 1.958 -1.50041 0
M  V30 28 H 0.371027 1.57816 -1.12615 0
M  V30 29 H 4.59936 -1.86957 1.73701 0
M  V30 30 H 8.01541 0.217506 0.243917 0
M  V30 31 H 6.44938 1.74526 -1.01244 0
M  V30 END ATOM
M  V30 BEGIN BOND
M  V30 1 1 1 2
M  V30 2 1 2 3
M  V30 3 2 2 4
M  V30 4 1 4 5
M  V30 5 2 5 6
M  V30 6 1 6 7
M  V30 7 2 7 8
M  V30 8 1 8 9
M  V30 9 1 7 10
M  V30 10 2 10 11
M  V30 11 1 10 12
M  V30 12 1 12 13
M  V30 13 2 13 14
M  V30 14 1 14 15
M  V30 15 2 15 16
M  V30 16 1 16 17
M  V30 17 1 17 18
M  V30 18 2 17 19
M  V30 19 1 19 20
M  V30 20 2 20 21
M  V30 21 1 21 22
M  V30 22 1 9 5
M  V30 23 1 22 13
M  V30 24 1 21 15
M  V30 25 1 1 23
M  V30 26 1 1 24
M  V30 27 1 3 25
M  V30 28 1 3 26
M  V30 29 1 8 27
M  V30 30 1 12 28
M  V30 31 1 16 29
M  V30 32 1 19 30
M  V30 33 1 20 31
M  V30 END BOND
M  V30 END CTAB
M  END
