
     RDKit          3D

  0  0  0  0  0  0  0  0  0  0999 V3000
M  V30 BEGIN CTAB
M  V30 COUNTS 62 67 0 0 0
M  V30 BEGIN ATOM
M  V30 1 N -7.51671 2.81434 2.38271 0
M  V30 2 C -7.4378 1.69856 1.48036 0
M  V30 3 N -8.49548 0.914964 1.25711 0
M  V30 4 C -8.36139 -0.11308 0.402499 0
M  V30 5 N -7.22257 -0.407509 -0.248392 0
M  V30 6 C -6.1315 0.367108 -0.0443824 0
M  V30 7 C -6.25134 1.42675 0.829604 0
M  V30 8 N -5.07372 2.05041 0.883336 0
M  V30 9 C -4.24739 1.40061 0.0696183 0
M  V30 10 N -4.86239 0.361521 -0.517105 0
M  V30 11 C -4.34314 -0.585736 -1.45197 0
M  V30 12 O -2.94951 -0.552238 -1.44041 0
M  V30 13 C -2.54236 -1.79221 -1.93384 0
M  V30 14 C -1.08015 -2.00343 -1.76578 0
M  V30 15 S -0.487012 -1.96165 -0.0797229 0
M  V30 16 S -0.66601 -0.0695313 0.816867 0
M  V30 17 C 0.754006 0.991807 0.591422 0
M  V30 18 C 2.00636 0.543995 1.26212 0
M  V30 19 O 3.01469 1.46726 1.01171 0
M  V30 20 C 4.22252 0.818219 1.16398 0
M  V30 21 C 4.01913 -0.660871 1.07291 0
M  V30 22 O 4.27286 -1.32372 2.26001 0
M  V30 23 C 2.53825 -0.783413 0.77593 0
M  V30 24 O 2.41638 -0.946179 -0.581654 0
M  V30 25 N 5.23263 1.32513 0.242461 0
M  V30 26 C 5.00072 2.2106 -0.741774 0
M  V30 27 N 6.14434 2.46219 -1.39906 0
M  V30 28 C 7.10621 1.73531 -0.831998 0
M  V30 29 C 6.54028 1.01762 0.201128 0
M  V30 30 N 7.26805 0.172968 0.98176 0
M  V30 31 C 8.59214 0.0454108 0.720491 0
M  V30 32 N 9.15937 0.741628 -0.287282 0
M  V30 33 C 8.46904 1.57069 -1.06103 0
M  V30 34 N 9.05756 2.31801 -2.1358 0
M  V30 35 C -3.40718 -2.7251 -1.1451 0
M  V30 36 O -3.47575 -3.96992 -1.73089 0
M  V30 37 C -4.75 -1.99661 -1.16809 0
M  V30 38 O -5.53106 -2.44309 -2.24172 0
M  V30 39 H -7.95305 3.71057 2.07919 0
M  V30 40 H -7.14469 2.74061 3.33459 0
M  V30 41 H -9.22979 -0.736107 0.23534 0
M  V30 42 H -3.21635 1.68209 -0.0903507 0
M  V30 43 H -4.66311 -0.258026 -2.48423 0
M  V30 44 H -2.793 -1.91758 -2.99627 0
M  V30 45 H -0.701641 -2.92067 -2.2559 0
M  V30 46 H -0.566135 -1.15915 -2.31299 0
M  V30 47 H 0.987351 1.14788 -0.49009 0
M  V30 48 H 0.47203 2.0065 0.961055 0
M  V30 49 H 1.84036 0.527316 2.35677 0
M  V30 50 H 4.59353 1.04193 2.18745 0
M  V30 51 H 4.65278 -1.09311 0.271711 0
M  V30 52 H 3.48883 -1.81252 2.60637 0
M  V30 53 H 2.07834 -1.60632 1.34445 0
M  V30 54 H 2.62245 -1.88249 -0.82579 0
M  V30 55 H 4.02416 2.65704 -0.969769 0
M  V30 56 H 9.15625 -0.634505 1.35558 0
M  V30 57 H 9.199 3.35425 -2.05057 0
M  V30 58 H 9.32695 1.77355 -2.98384 0
M  V30 59 H -3.09927 -2.80245 -0.0778887 0
M  V30 60 H -3.67964 -4.63396 -1.01348 0
M  V30 61 H -5.28918 -2.12802 -0.209147 0
M  V30 62 H -5.08824 -3.17764 -2.73462 0
M  V30 END ATOM
M  V30 BEGIN BOND
M  V30 1 1 1 2
M  V30 2 2 2 3
M  V30 3 1 3 4
M  V30 4 2 4 5
M  V30 5 1 5 6
M  V30 6 2 6 7
M  V30 7 1 7 8
M  V30 8 2 8 9
M  V30 9 1 9 10
M  V30 10 1 10 11
M  V30 11 1 11 12
M  V30 12 1 12 13
M  V30 13 1 13 14
M  V30 14 1 14 15
M  V30 15 1 15 16
M  V30 16 1 16 17
M  V30 17 1 17 18
M  V30 18 1 18 19
M  V30 19 1 19 20
M  V30 20 1 20 21
M  V30 21 1 21 22
M  V30 22 1 21 23
M  V30 23 1 23 24
M  V30 24 1 20 25
M  V30 25 1 25 26
M  V30 26 2 26 27
M  V30 27 1 27 28
M  V30 28 2 28 29
M  V30 29 1 29 30
M  V30 30 2 30 31
M  V30 31 1 31 32
M  V30 32 2 32 33
M  V30 33 1 33 34
M  V30 34 1 13 35
M  V30 35 1 35 36
M  V30 36 1 35 37
M  V30 37 1 37 38
M  V30 38 1 7 2
M  V30 39 1 37 11
M  V30 40 1 10 6
M  V30 41 1 23 18
M  V30 42 1 29 25
M  V30 43 1 33 28
M  V30 44 1 1 39
M  V30 45 1 1 40
M  V30 46 1 4 41
M  V30 47 1 9 42
M  V30 48 1 11 43
M  V30 49 1 13 44
M  V30 50 1 14 45
M  V30 51 1 14 46
M  V30 52 1 17 47
M  V30 53 1 17 48
M  V30 54 1 18 49
M  V30 55 1 20 50
M  V30 56 1 21 51
M  V30 57 1 22 52
M  V30 58 1 23 53
M  V30 59 1 24 54
M  V30 60 1 26 55
M  V30 61 1 31 56
M  V30 62 1 34 57
M  V30 63 1 34 58
M  V30 64 1 35 59
M  V30 65 1 36 60
M  V30 66 1 37 61
M  V30 67 1 38 62
M  V30 END BOND
M  V30 END CTAB
M  END
