
     RDKit          3D

  0  0  0  0  0  0  0  0  0  0999 V3000
M  V30 BEGIN CTAB
M  V30 COUNTS 19 19 0 0 0
M  V30 BEGIN ATOM
M  V30 1 F -2.62418 -1.32361 -0.852431 0
M  V30 2 C -1.9938 -1.23279 0.391923 0
M  V30 3 C -0.749793 -0.431444 0.147314 0
M  V30 4 C 0.463473 -1.05167 0.299458 0
M  V30 5 C 1.66976 -0.388767 0.0940879 0
M  V30 6 N 2.91465 -1.02934 0.251376 0
M  V30 7 C 1.58978 0.957368 -0.279736 0
M  V30 8 C 0.362533 1.56467 -0.428037 0
M  V30 9 C -0.822643 0.891977 -0.220304 0
M  V30 10 N -2.08944 1.49757 -0.367481 0
M  V30 11 I 3.38326 1.99344 -0.59917 0
M  V30 12 F -2.83494 -0.608264 1.27109 0
M  V30 13 H -1.73101 -2.2651 0.675168 0
M  V30 14 H 0.531166 -2.08048 0.585021 0
M  V30 15 H 3.28034 -1.60926 -0.512609 0
M  V30 16 H 3.45544 -0.922349 1.11649 0
M  V30 17 H 0.289222 2.60678 -0.717241 0
M  V30 18 H -2.48878 1.60553 -1.31245 0
M  V30 19 H -2.60503 1.82573 0.457526 0
M  V30 END ATOM
M  V30 BEGIN BOND
M  V30 1 1 1 2
M  V30 2 1 2 3
M  V30 3 2 3 4
M  V30 4 1 4 5
M  V30 5 1 5 6
M  V30 6 2 5 7
M  V30 7 1 7 8
M  V30 8 2 8 9
M  V30 9 1 9 10
M  V30 10 1 7 11
M  V30 11 1 2 12
M  V30 12 1 9 3
M  V30 13 1 2 13
M  V30 14 1 4 14
M  V30 15 1 6 15
M  V30 16 1 6 16
M  V30 17 1 8 17
M  V30 18 1 10 18
M  V30 19 1 10 19
M  V30 END BOND
M  V30 END CTAB
M  END
