
     RDKit          3D

  0  0  0  0  0  0  0  0  0  0999 V3000
M  V30 BEGIN CTAB
M  V30 COUNTS 39 41 0 0 0
M  V30 BEGIN ATOM
M  V30 1 N -3.13178 -3.308 0.37149 0
M  V30 2 C -2.10016 -2.29057 0.464262 0
M  V30 3 C -2.46763 -1.22369 -0.553249 0
M  V30 4 N -1.52157 -0.133976 -0.577195 0
M  V30 5 C -0.205983 -0.461243 -1.0951 0
M  V30 6 C 0.806563 0.596928 -0.933449 0 CFG=1
M  V30 7 N 0.435805 1.67961 -0.0841082 0
M  V30 8 C -0.89818 2.08213 0.147218 0
M  V30 9 C -1.90714 1.14537 -0.107747 0
M  V30 10 C -3.23501 1.49557 0.106394 0
M  V30 11 C -3.53861 2.76236 0.5679 0
M  V30 12 C -2.53099 3.67906 0.816126 0
M  V30 13 C -1.21786 3.33713 0.605588 0
M  V30 14 C 2.1011 0.0447334 -0.408345 0
M  V30 15 C 3.13615 -0.288545 -1.24999 0
M  V30 16 C 4.31087 -0.788719 -0.739062 0
M  V30 17 C 4.49722 -0.974409 0.621427 0
M  V30 18 N 3.45543 -0.632566 1.39417 0
M  V30 19 C 2.2926 -0.142 0.945263 0
M  V30 20 N 5.71042 -1.49217 1.15243 0
M  V30 21 H -2.97043 -3.88322 -0.457397 0
M  V30 22 H -4.07748 -2.91244 0.33316 0
M  V30 23 H -2.10825 -1.91935 1.49524 0
M  V30 24 H -1.15723 -2.78773 0.187094 0
M  V30 25 H -2.36682 -1.7773 -1.54927 0
M  V30 26 H -3.51129 -0.985151 -0.48353 0
M  V30 27 H -0.342155 -0.759333 -2.15435 0
M  V30 28 H 0.123615 -1.39471 -0.554512 0
M  V30 29 H 1.06477 1.04316 -1.939 0
M  V30 30 H 1.17461 2.21984 0.4037 0
M  V30 31 H -4.02866 0.796278 -0.0841021 0
M  V30 32 H -4.55982 3.053 0.739847 0
M  V30 33 H -2.77615 4.66519 1.17621 0
M  V30 34 H -0.385939 4.02201 0.785832 0
M  V30 35 H 3.00858 -0.150152 -2.32184 0
M  V30 36 H 5.13231 -1.05485 -1.39634 0
M  V30 37 H 1.4721 0.122127 1.62269 0
M  V30 38 H 6.59525 -1.56283 0.61403 0
M  V30 39 H 5.72171 -1.82154 2.1385 0
M  V30 END ATOM
M  V30 BEGIN BOND
M  V30 1 1 1 2
M  V30 2 1 2 3
M  V30 3 1 3 4
M  V30 4 1 4 5
M  V30 5 1 5 6
M  V30 6 1 6 7
M  V30 7 1 7 8
M  V30 8 2 8 9
M  V30 9 1 9 10
M  V30 10 2 10 11
M  V30 11 1 11 12
M  V30 12 2 12 13
M  V30 13 1 6 14
M  V30 14 2 14 15
M  V30 15 1 15 16
M  V30 16 2 16 17
M  V30 17 1 17 18
M  V30 18 2 18 19
M  V30 19 1 17 20
M  V30 20 1 9 4
M  V30 21 1 19 14
M  V30 22 1 13 8
M  V30 23 1 1 21
M  V30 24 1 1 22
M  V30 25 1 2 23
M  V30 26 1 2 24
M  V30 27 1 3 25
M  V30 28 1 3 26
M  V30 29 1 5 27
M  V30 30 1 5 28
M  V30 31 1 6 29 CFG=3
M  V30 32 1 7 30
M  V30 33 1 10 31
M  V30 34 1 11 32
M  V30 35 1 12 33
M  V30 36 1 13 34
M  V30 37 1 15 35
M  V30 38 1 16 36
M  V30 39 1 19 37
M  V30 40 1 20 38
M  V30 41 1 20 39
M  V30 END BOND
M  V30 END CTAB
M  END
