
     RDKit          3D

  0  0  0  0  0  0  0  0  0  0999 V3000
M  V30 BEGIN CTAB
M  V30 COUNTS 22 22 0 0 0
M  V30 BEGIN ATOM
M  V30 1 C 4.07428 -0.864108 0.0522252 0
M  V30 2 O 2.70262 -0.662723 -0.173986 0
M  V30 3 C 2.00513 0.50632 0.0641865 0
M  V30 4 O 2.63596 1.48657 0.523106 0
M  V30 5 C 0.560328 0.566865 -0.223211 0
M  V30 6 C -0.0697489 1.71803 -0.634977 0
M  V30 7 Cl 0.846042 3.19043 -0.826572 0
M  V30 8 C -1.44473 1.68675 -0.892465 0
M  V30 9 C -2.19349 0.539078 -0.747982 0
M  V30 10 N -3.59378 0.470846 -0.999393 0
M  V30 11 C -1.56211 -0.602031 -0.338535 0
M  V30 12 N -2.22904 -1.8568 -0.153092 0
M  V30 13 C -0.230253 -0.569719 -0.0895371 0
M  V30 14 H 4.17508 -1.98297 0.204939 0
M  V30 15 H 4.6446 -0.605058 -0.858177 0
M  V30 16 H 4.46033 -0.424636 0.979437 0
M  V30 17 H -1.9338 2.58664 -1.21236 0
M  V30 18 H -4.2292 0.609511 -0.182224 0
M  V30 19 H -3.97925 0.289204 -1.96065 0
M  V30 20 H -1.70957 -2.75377 -0.217725 0
M  V30 21 H -3.23759 -1.86242 0.0455043 0
M  V30 22 H 0.308195 -1.46601 0.239775 0
M  V30 END ATOM
M  V30 BEGIN BOND
M  V30 1 1 1 2
M  V30 2 1 2 3
M  V30 3 2 3 4
M  V30 4 1 3 5
M  V30 5 2 5 6
M  V30 6 1 6 7
M  V30 7 1 6 8
M  V30 8 2 8 9
M  V30 9 1 9 10
M  V30 10 1 9 11
M  V30 11 1 11 12
M  V30 12 2 11 13
M  V30 13 1 13 5
M  V30 14 1 1 14
M  V30 15 1 1 15
M  V30 16 1 1 16
M  V30 17 1 8 17
M  V30 18 1 10 18
M  V30 19 1 10 19
M  V30 20 1 12 20
M  V30 21 1 12 21
M  V30 22 1 13 22
M  V30 END BOND
M  V30 END CTAB
M  END
