
     RDKit          3D

  0  0  0  0  0  0  0  0  0  0999 V3000
M  V30 BEGIN CTAB
M  V30 COUNTS 26 26 0 0 0
M  V30 BEGIN ATOM
M  V30 1 C -2.8711 -0.545504 -1.36756 0
M  V30 2 C -2.1402 0.0214764 -0.14751 0
M  V30 3 O -0.9096 -0.474091 -0.00517987 0
M  V30 4 C 0.382502 -0.101411 0.0324868 0
M  V30 5 C 1.36964 -1.09161 0.220818 0
M  V30 6 C 2.71275 -0.812704 0.273553 0
M  V30 7 N 3.67865 -1.85495 0.467019 0
M  V30 8 C 3.16295 0.482777 0.140803 0
M  V30 9 C 2.23078 1.46771 -0.0432857 0
M  V30 10 C 0.857679 1.18254 -0.097191 0
M  V30 11 N -0.0223219 2.27641 -0.291502 0
M  V30 12 C -2.94244 -0.347767 1.12358 0
M  V30 13 H -3.41179 -1.47303 -1.09689 0
M  V30 14 H -2.09073 -0.731659 -2.12899 0
M  V30 15 H -3.58385 0.184076 -1.79311 0
M  V30 16 H -2.18791 1.11606 -0.287758 0
M  V30 17 H 1.01455 -2.09871 0.323681 0
M  V30 18 H 4.65744 -1.64603 0.678789 0
M  V30 19 H 3.3683 -2.84113 0.38844 0
M  V30 20 H 4.22546 0.662099 0.187688 0
M  V30 21 H 2.59346 2.48823 -0.147334 0
M  V30 22 H -0.385749 2.51106 -1.2294 0
M  V30 23 H -0.311848 2.85694 0.516133 0
M  V30 24 H -3.66954 0.462554 1.28369 0
M  V30 25 H -2.26874 -0.380967 2.00554 0
M  V30 26 H -3.45834 -1.31236 0.993483 0
M  V30 END ATOM
M  V30 BEGIN BOND
M  V30 1 1 1 2
M  V30 2 1 2 3
M  V30 3 1 3 4
M  V30 4 2 4 5
M  V30 5 1 5 6
M  V30 6 1 6 7
M  V30 7 2 6 8
M  V30 8 1 8 9
M  V30 9 2 9 10
M  V30 10 1 10 11
M  V30 11 1 2 12
M  V30 12 1 10 4
M  V30 13 1 1 13
M  V30 14 1 1 14
M  V30 15 1 1 15
M  V30 16 1 2 16
M  V30 17 1 5 17
M  V30 18 1 7 18
M  V30 19 1 7 19
M  V30 20 1 8 20
M  V30 21 1 9 21
M  V30 22 1 11 22
M  V30 23 1 11 23
M  V30 24 1 12 24
M  V30 25 1 12 25
M  V30 26 1 12 26
M  V30 END BOND
M  V30 END CTAB
M  END
