
     RDKit          3D

  0  0  0  0  0  0  0  0  0  0999 V3000
M  V30 BEGIN CTAB
M  V30 COUNTS 55 57 0 0 0
M  V30 BEGIN ATOM
M  V30 1 C 1.82834 -1.98086 -2.92492 0
M  V30 2 C 2.34995 -1.51434 -1.61323 0
M  V30 3 N 3.49162 -1.35622 -1.34455 0
M  V30 4 N 4.72026 -1.15653 -0.969037 0
M  V30 5 C 5.11408 0.193482 -0.636206 0
M  V30 6 O 4.20096 1.10577 -0.751142 0
M  V30 7 C 6.40536 0.554275 -0.19031 0
M  V30 8 C 6.63378 1.88677 0.210323 0
M  V30 9 N 5.56521 2.79593 0.116178 0
M  V30 10 C 7.86584 2.22755 0.645422 0
M  V30 11 C 8.90536 1.35831 0.723766 0
M  V30 12 C 8.74644 0.0203324 0.336044 0
M  V30 13 C 7.48338 -0.285799 -0.0992025 0
M  V30 14 C 1.348 -1.3164 -0.524009 0
M  V30 15 C 1.70953 -1.4376 0.757039 0
M  V30 16 C 0.74668 -1.10419 1.74493 0
M  V30 17 C -0.4957 -0.676967 1.28926 0
M  V30 18 C -0.815148 -0.567137 -0.00845665 0
M  V30 19 N 0.146996 -0.899595 -0.952376 0
M  V30 20 C -2.07947 -0.122876 -0.549172 0
M  V30 21 C -2.18304 0.0846871 -2.03817 0
M  V30 22 N -3.08936 0.0222618 0.143475 0
M  V30 23 N -4.11709 0.17668 0.810974 0
M  V30 24 C -5.20251 0.34826 1.59113 0
M  V30 25 O -5.28279 0.529365 2.81461 0
M  V30 26 C -6.56309 0.296432 0.896293 0
M  V30 27 C -7.65553 0.280542 1.64514 0
M  V30 28 N -7.61473 0.237853 3.04582 0
M  V30 29 C -8.92883 0.237798 1.02733 0
M  V30 30 C -8.90354 0.21788 -0.360701 0
M  V30 31 C -7.78419 0.23398 -1.13242 0
M  V30 32 C -6.52082 0.274546 -0.484516 0
M  V30 33 H 2.13129 -1.33602 -3.75613 0
M  V30 34 H 0.716279 -2.03771 -2.89463 0
M  V30 35 H 2.14438 -3.05328 -3.06436 0
M  V30 36 H 5.44921 -1.91919 -0.895591 0
M  V30 37 H 5.50306 3.49432 -0.677055 0
M  V30 38 H 4.81222 2.81128 0.82001 0
M  V30 39 H 8.05965 3.2561 0.961882 0
M  V30 40 H 9.87126 1.6597 1.10431 0
M  V30 41 H 9.59033 -0.615622 0.40886 0
M  V30 42 H 7.35891 -1.34281 -0.402285 0
M  V30 43 H 2.70526 -1.79338 1.07734 0
M  V30 44 H 1.00838 -1.17913 2.76276 0
M  V30 45 H -1.26373 -0.441391 2.05236 0
M  V30 46 H -2.39222 -0.926474 -2.50964 0
M  V30 47 H -1.17357 0.381117 -2.44858 0
M  V30 48 H -2.98292 0.740825 -2.35972 0
M  V30 49 H -3.30773 0.373841 1.94253 0
M  V30 50 H -7.98686 0.973993 3.69854 0
M  V30 51 H -7.18192 -0.607307 3.52866 0
M  V30 52 H -9.8262 0.196441 1.61582 0
M  V30 53 H -9.86123 0.174744 -0.896304 0
M  V30 54 H -7.76424 0.232888 -2.17973 0
M  V30 55 H -5.63553 0.292904 -1.09112 0
M  V30 END ATOM
M  V30 BEGIN BOND
M  V30 1 1 1 2
M  V30 2 2 2 3 CFG=2
M  V30 3 1 3 4
M  V30 4 1 4 5
M  V30 5 2 5 6
M  V30 6 1 5 7
M  V30 7 2 7 8
M  V30 8 1 8 9
M  V30 9 1 8 10
M  V30 10 2 10 11
M  V30 11 1 11 12
M  V30 12 2 12 13
M  V30 13 1 2 14
M  V30 14 2 14 15
M  V30 15 1 15 16
M  V30 16 2 16 17
M  V30 17 1 17 18
M  V30 18 2 18 19
M  V30 19 1 18 20
M  V30 20 1 20 21
M  V30 21 2 20 22 CFG=2
M  V30 22 1 22 23
M  V30 23 1 23 24
M  V30 24 2 24 25
M  V30 25 1 24 26
M  V30 26 2 26 27
M  V30 27 1 27 28
M  V30 28 1 27 29
M  V30 29 2 29 30
M  V30 30 1 30 31
M  V30 31 2 31 32
M  V30 32 1 13 7
M  V30 33 1 19 14
M  V30 34 1 32 26
M  V30 35 1 1 33
M  V30 36 1 1 34
M  V30 37 1 1 35
M  V30 38 1 4 36
M  V30 39 1 9 37
M  V30 40 1 9 38
M  V30 41 1 10 39
M  V30 42 1 11 40
M  V30 43 1 12 41
M  V30 44 1 13 42
M  V30 45 1 15 43
M  V30 46 1 16 44
M  V30 47 1 17 45
M  V30 48 1 21 46
M  V30 49 1 21 47
M  V30 50 1 21 48
M  V30 51 1 23 49
M  V30 52 1 28 50
M  V30 53 1 28 51
M  V30 54 1 29 52
M  V30 55 1 30 53
M  V30 56 1 31 54
M  V30 57 1 32 55
M  V30 END BOND
M  V30 END CTAB
M  END
