
     RDKit          3D

  0  0  0  0  0  0  0  0  0  0999 V3000
M  V30 BEGIN CTAB
M  V30 COUNTS 18 18 0 0 0
M  V30 BEGIN ATOM
M  V30 1 N 2.01356 1.08904 0.498994 0
M  V30 2 C 2.05845 -0.298729 0.275148 0
M  V30 3 N 3.27525 -1.03502 0.343655 0
M  V30 4 N 1.00467 -0.971982 -0.00228964 0
M  V30 5 C -0.256946 -0.361619 -0.0987938 0
M  V30 6 N -0.524143 0.93728 0.0753863 0
M  V30 7 C -1.77504 1.41725 -0.0411628 0
M  V30 8 C -2.8586 0.612458 -0.345223 0
M  V30 9 C -2.60858 -0.740474 -0.531091 0
M  V30 10 C -1.33426 -1.19789 -0.40711 0
M  V30 11 H 1.91071 1.77365 -0.290589 0
M  V30 12 H 2.07997 1.51077 1.45954 0
M  V30 13 H 4.05284 -0.759718 -0.28596 0
M  V30 14 H 3.39165 -1.83 1.00438 0
M  V30 15 H -1.98073 2.48963 0.104991 0
M  V30 16 H -3.84482 1.02768 -0.430993 0
M  V30 17 H -3.44199 -1.3885 -0.769786 0
M  V30 18 H -1.16201 -2.27382 -0.559094 0
M  V30 END ATOM
M  V30 BEGIN BOND
M  V30 1 1 1 2
M  V30 2 1 2 3
M  V30 3 2 2 4
M  V30 4 1 4 5
M  V30 5 2 5 6
M  V30 6 1 6 7
M  V30 7 2 7 8
M  V30 8 1 8 9
M  V30 9 2 9 10
M  V30 10 1 10 5
M  V30 11 1 1 11
M  V30 12 1 1 12
M  V30 13 1 3 13
M  V30 14 1 3 14
M  V30 15 1 7 15
M  V30 16 1 8 16
M  V30 17 1 9 17
M  V30 18 1 10 18
M  V30 END BOND
M  V30 END CTAB
M  END
