
     RDKit          3D

  0  0  0  0  0  0  0  0  0  0999 V3000
M  V30 BEGIN CTAB
M  V30 COUNTS 57 61 0 0 0
M  V30 BEGIN ATOM
M  V30 1 C -1.82942 2.70417 2.89306 0
M  V30 2 C -1.06082 1.83927 1.97843 0
M  V30 3 C 0.31862 1.77386 2.11373 0
M  V30 4 C 1.10085 0.968504 1.27234 0
M  V30 5 N 0.423912 0.290468 0.357336 0
M  V30 6 C -0.920651 0.323975 0.189324 0
M  V30 7 N -1.61651 1.10655 1.01683 0
M  V30 8 N -1.54263 -0.418427 -0.8345 0
M  V30 9 C -2.92095 -0.478225 -1.0939 0
M  V30 10 C -3.34077 -0.835309 -2.39614 0
M  V30 11 C -4.66423 -0.941865 -2.71978 0
M  V30 12 C -5.65049 -0.705746 -1.79012 0
M  V30 13 C -5.28114 -0.358754 -0.520841 0
M  V30 14 C -3.91865 -0.25 -0.189552 0
M  V30 15 C -6.27171 -0.122924 0.407641 0
M  V30 16 N -5.93574 0.239171 1.73502 0
M  V30 17 C -7.59737 -0.236939 0.0543913 0
M  V30 18 C -7.93737 -0.592967 -1.25006 0
M  V30 19 N -6.95537 -0.823658 -2.15897 0
M  V30 20 C -9.37474 -0.709023 -1.60534 0
M  V30 21 N 2.48814 0.970614 1.46523 0
M  V30 22 C 3.46759 0.221286 0.761506 0
M  V30 23 C 3.20647 -0.862443 -0.0317822 0
M  V30 24 C 4.23983 -1.53297 -0.712439 0
M  V30 25 C 5.55222 -1.13919 -0.616875 0
M  V30 26 C 5.82303 -0.0493689 0.180398 0
M  V30 27 C 4.81836 0.609388 0.847087 0
M  V30 28 C 7.14892 0.343047 0.272646 0
M  V30 29 N 7.44344 1.47067 1.09541 0
M  V30 30 C 8.15824 -0.316262 -0.395774 0
M  V30 31 C 7.8363 -1.40312 -1.18267 0
M  V30 32 N 6.54851 -1.77234 -1.26306 0
M  V30 33 C 8.90707 -2.14734 -1.92633 0
M  V30 34 H -1.96479 3.71097 2.43212 0
M  V30 35 H -1.25071 2.88048 3.83469 0
M  V30 36 H -2.84683 2.31836 3.10742 0
M  V30 37 H 0.791295 2.35922 2.88683 0
M  V30 38 H -0.860304 -0.976562 -1.4484 0
M  V30 39 H -2.55182 -1.02394 -3.13891 0
M  V30 40 H -4.97237 -1.21757 -3.72592 0
M  V30 41 H -3.71694 0.00726836 0.829409 0
M  V30 42 H -6.34794 1.09755 2.2013 0
M  V30 43 H -5.27598 -0.302346 2.3273 0
M  V30 44 H -8.39694 -0.0542951 0.775254 0
M  V30 45 H -9.52786 -0.605741 -2.69696 0
M  V30 46 H -9.98198 0.0212034 -1.03316 0
M  V30 47 H -9.69831 -1.73158 -1.31696 0
M  V30 48 H 2.85554 1.61901 2.24617 0
M  V30 49 H 2.20818 -1.23672 -0.146255 0
M  V30 50 H 4.00415 -2.3965 -1.34075 0
M  V30 51 H 5.03138 1.46711 1.47366 0
M  V30 52 H 7.04015 2.41293 0.879188 0
M  V30 53 H 8.06321 1.41626 1.93804 0
M  V30 54 H 9.19792 -0.0184624 -0.331071 0
M  V30 55 H 9.82133 -1.52289 -1.97464 0
M  V30 56 H 8.56902 -2.27937 -2.97449 0
M  V30 57 H 9.14768 -3.10848 -1.45523 0
M  V30 END ATOM
M  V30 BEGIN BOND
M  V30 1 1 1 2
M  V30 2 2 2 3
M  V30 3 1 3 4
M  V30 4 2 4 5
M  V30 5 1 5 6
M  V30 6 2 6 7
M  V30 7 1 6 8
M  V30 8 1 8 9
M  V30 9 2 9 10
M  V30 10 1 10 11
M  V30 11 2 11 12
M  V30 12 1 12 13
M  V30 13 2 13 14
M  V30 14 1 13 15
M  V30 15 1 15 16
M  V30 16 2 15 17
M  V30 17 1 17 18
M  V30 18 2 18 19
M  V30 19 1 18 20
M  V30 20 1 4 21
M  V30 21 1 21 22
M  V30 22 2 22 23
M  V30 23 1 23 24
M  V30 24 2 24 25
M  V30 25 1 25 26
M  V30 26 2 26 27
M  V30 27 1 26 28
M  V30 28 1 28 29
M  V30 29 2 28 30
M  V30 30 1 30 31
M  V30 31 2 31 32
M  V30 32 1 31 33
M  V30 33 1 7 2
M  V30 34 1 14 9
M  V30 35 1 27 22
M  V30 36 1 19 12
M  V30 37 1 32 25
M  V30 38 1 1 34
M  V30 39 1 1 35
M  V30 40 1 1 36
M  V30 41 1 3 37
M  V30 42 1 8 38
M  V30 43 1 10 39
M  V30 44 1 11 40
M  V30 45 1 14 41
M  V30 46 1 16 42
M  V30 47 1 16 43
M  V30 48 1 17 44
M  V30 49 1 20 45
M  V30 50 1 20 46
M  V30 51 1 20 47
M  V30 52 1 21 48
M  V30 53 1 23 49
M  V30 54 1 24 50
M  V30 55 1 27 51
M  V30 56 1 29 52
M  V30 57 1 29 53
M  V30 58 1 30 54
M  V30 59 1 33 55
M  V30 60 1 33 56
M  V30 61 1 33 57
M  V30 END BOND
M  V30 END CTAB
M  END
