
     RDKit          3D

  0  0  0  0  0  0  0  0  0  0999 V3000
M  V30 BEGIN CTAB
M  V30 COUNTS 45 46 0 0 0
M  V30 BEGIN ATOM
M  V30 1 N 6.11589 2.94518 -1.13114 0
M  V30 2 C 5.32187 2.95132 0.0979974 0
M  V30 3 C 4.612 1.64326 0.238191 0
M  V30 4 O 5.07618 0.585838 0.845206 0
M  V30 5 C 4.20932 -0.407915 0.795933 0
M  V30 6 C 3.09558 0.0320101 0.10555 0
M  V30 7 C 3.36755 1.32972 -0.239124 0
M  V30 8 C 1.86438 -0.718685 -0.205783 0
M  V30 9 O 0.992503 -0.125426 -0.837299 0
M  V30 10 N 1.76409 -2.04198 0.230117 0
M  V30 11 C 0.740045 -2.99914 0.11818 0
M  V30 12 C -0.546388 -2.84193 0.82568 0
M  V30 13 C -1.41169 -1.69563 0.564923 0
M  V30 14 C -1.4946 -0.648139 1.49147 0
M  V30 15 C -2.32782 0.422091 1.27709 0
M  V30 16 C -3.12026 0.529424 0.156018 0
M  V30 17 C -3.03603 -0.502623 -0.752871 0
M  V30 18 C -2.20952 -1.58339 -0.559507 0
M  V30 19 C -4.0173 1.6915 -0.0648838 0
M  V30 20 C -3.5566 2.44298 -1.31275 0
M  V30 21 C -5.44524 1.20867 -0.257442 0
M  V30 22 N -1.34634 -4.10048 0.678681 0
M  V30 23 H 7.01878 2.46109 -0.875621 0
M  V30 24 H 5.63315 2.28572 -1.80582 0
M  V30 25 H 4.55507 3.75228 0.00561228 0
M  V30 26 H 6.00122 3.15454 0.935278 0
M  V30 27 H 4.35367 -1.39147 1.22385 0
M  V30 28 H 2.72227 2.01488 -0.796291 0
M  V30 29 H 2.64813 -2.41069 0.76379 0
M  V30 30 H 1.1546 -4.00715 0.479864 0
M  V30 31 H 0.550614 -3.26337 -0.985958 0
M  V30 32 H -0.304547 -2.88301 1.94297 0
M  V30 33 H -0.873277 -0.73102 2.37175 0
M  V30 34 H -2.39461 1.23466 1.99198 0
M  V30 35 H -3.65842 -0.426776 -1.64184 0
M  V30 36 H -2.19166 -2.35911 -1.31315 0
M  V30 37 H -3.93617 2.39253 0.767299 0
M  V30 38 H -2.95842 3.34019 -1.03432 0
M  V30 39 H -4.42765 2.76549 -1.92289 0
M  V30 40 H -2.89307 1.77139 -1.90607 0
M  V30 41 H -5.53392 0.913157 -1.3353 0
M  V30 42 H -6.1238 2.04717 -0.022851 0
M  V30 43 H -5.6271 0.309005 0.373652 0
M  V30 44 H -0.685674 -4.89933 0.898467 0
M  V30 45 H -1.67679 -4.18683 -0.300466 0
M  V30 END ATOM
M  V30 BEGIN BOND
M  V30 1 1 1 2
M  V30 2 1 2 3
M  V30 3 1 3 4
M  V30 4 1 4 5
M  V30 5 2 5 6
M  V30 6 1 6 7
M  V30 7 1 6 8
M  V30 8 2 8 9
M  V30 9 1 8 10
M  V30 10 1 10 11
M  V30 11 1 11 12
M  V30 12 1 12 13
M  V30 13 2 13 14
M  V30 14 1 14 15
M  V30 15 2 15 16
M  V30 16 1 16 17
M  V30 17 2 17 18
M  V30 18 1 16 19
M  V30 19 1 19 20
M  V30 20 1 19 21
M  V30 21 1 12 22
M  V30 22 2 7 3
M  V30 23 1 18 13
M  V30 24 1 1 23
M  V30 25 1 1 24
M  V30 26 1 2 25
M  V30 27 1 2 26
M  V30 28 1 5 27
M  V30 29 1 7 28
M  V30 30 1 10 29
M  V30 31 1 11 30
M  V30 32 1 11 31
M  V30 33 1 12 32
M  V30 34 1 14 33
M  V30 35 1 15 34
M  V30 36 1 17 35
M  V30 37 1 18 36
M  V30 38 1 19 37
M  V30 39 1 20 38
M  V30 40 1 20 39
M  V30 41 1 20 40
M  V30 42 1 21 41
M  V30 43 1 21 42
M  V30 44 1 21 43
M  V30 45 1 22 44
M  V30 46 1 22 45
M  V30 END BOND
M  V30 END CTAB
M  END
