
     RDKit          3D

  0  0  0  0  0  0  0  0  0  0999 V3000
M  V30 BEGIN CTAB
M  V30 COUNTS 48 50 0 0 0
M  V30 BEGIN ATOM
M  V30 1 N 6.36217 0.741664 1.22993 0
M  V30 2 C 6.49537 0.508608 -0.196729 0
M  V30 3 C 5.74365 -0.739786 -0.54156 0
M  V30 4 N 4.34317 -0.658739 -0.219931 0
M  V30 5 C 3.47237 0.303046 -0.790723 0
M  V30 6 O 3.93954 1.12348 -1.61792 0
M  V30 7 C 2.03293 0.342583 -0.419463 0
M  V30 8 C 1.96902 0.58556 1.0723 0
M  V30 9 C 0.516722 0.385737 1.52337 0
M  V30 10 C 0.17439 -1.04451 1.1143 0
M  V30 11 N 0.0778887 -1.15448 -0.298006 0
M  V30 12 C 1.43066 -0.971245 -0.829975 0
M  V30 13 C -0.768168 -0.231239 -0.958535 0
M  V30 14 C -2.18038 -0.251662 -0.578574 0
M  V30 15 N -2.77548 -1.04705 0.296829 0
M  V30 16 C -4.0969 -0.990168 0.583208 0
M  V30 17 N -4.69601 -1.85538 1.52313 0
M  V30 18 C -4.89533 -0.0635322 -0.054984 0
M  V30 19 C -4.27405 0.765695 -0.96785 0
M  V30 20 N -2.97467 0.656052 -1.20062 0
M  V30 21 C -5.05706 1.69826 -1.6154 0
M  V30 22 C -6.41497 1.82135 -1.37989 0
M  V30 23 C -7.00294 0.977062 -0.461847 0
M  V30 24 C -6.24848 0.0232013 0.212357 0
M  V30 25 H 5.8205 1.60361 1.37848 0
M  V30 26 H 5.98569 -0.088263 1.73215 0
M  V30 27 H 6.2145 1.36025 -0.806984 0
M  V30 28 H 7.57784 0.316429 -0.378786 0
M  V30 29 H 5.85452 -1.00724 -1.61806 0
M  V30 30 H 6.18341 -1.56736 0.0772164 0
M  V30 31 H 3.9382 -1.3394 0.468337 0
M  V30 32 H 1.57405 1.19919 -0.910836 0
M  V30 33 H 2.27029 1.61809 1.26965 0
M  V30 34 H 2.5679 -0.146126 1.65058 0
M  V30 35 H 0.493812 0.48471 2.61324 0
M  V30 36 H -0.151436 1.12534 1.08362 0
M  V30 37 H -0.64383 -1.46012 1.69963 0
M  V30 38 H 1.08838 -1.64153 1.42006 0
M  V30 39 H 2.11003 -1.78351 -0.517432 0
M  V30 40 H 1.31948 -0.941529 -1.94044 0
M  V30 41 H -0.429341 0.822772 -0.925046 0
M  V30 42 H -0.734807 -0.496831 -2.05942 0
M  V30 43 H -4.52412 -1.68555 2.52314 0
M  V30 44 H -5.2975 -2.64825 1.23943 0
M  V30 45 H -4.59446 2.35367 -2.32964 0
M  V30 46 H -7.0106 2.57031 -1.90845 0
M  V30 47 H -8.07266 1.0761 -0.278207 0
M  V30 48 H -6.71328 -0.64927 0.942666 0
M  V30 END ATOM
M  V30 BEGIN BOND
M  V30 1 1 1 2
M  V30 2 1 2 3
M  V30 3 1 3 4
M  V30 4 1 4 5
M  V30 5 2 5 6
M  V30 6 1 5 7
M  V30 7 1 7 8
M  V30 8 1 8 9
M  V30 9 1 9 10
M  V30 10 1 10 11
M  V30 11 1 11 12
M  V30 12 1 11 13
M  V30 13 1 13 14
M  V30 14 2 14 15
M  V30 15 1 15 16
M  V30 16 1 16 17
M  V30 17 2 16 18
M  V30 18 1 18 19
M  V30 19 2 19 20
M  V30 20 1 19 21
M  V30 21 2 21 22
M  V30 22 1 22 23
M  V30 23 2 23 24
M  V30 24 1 12 7
M  V30 25 1 20 14
M  V30 26 1 24 18
M  V30 27 1 1 25
M  V30 28 1 1 26
M  V30 29 1 2 27
M  V30 30 1 2 28
M  V30 31 1 3 29
M  V30 32 1 3 30
M  V30 33 1 4 31
M  V30 34 1 7 32
M  V30 35 1 8 33
M  V30 36 1 8 34
M  V30 37 1 9 35
M  V30 38 1 9 36
M  V30 39 1 10 37
M  V30 40 1 10 38
M  V30 41 1 12 39
M  V30 42 1 12 40
M  V30 43 1 13 41
M  V30 44 1 13 42
M  V30 45 1 17 43
M  V30 46 1 17 44
M  V30 47 1 21 45
M  V30 48 1 22 46
M  V30 49 1 23 47
M  V30 50 1 24 48
M  V30 END BOND
M  V30 END CTAB
M  END
