
     RDKit          3D

  0  0  0  0  0  0  0  0  0  0999 V3000
M  V30 BEGIN CTAB
M  V30 COUNTS 25 25 0 0 0
M  V30 BEGIN ATOM
M  V30 1 C 2.37518 2.09889 0.841509 0
M  V30 2 O 2.47411 0.864044 0.164768 0
M  V30 3 C 1.35267 0.10431 -0.106087 0
M  V30 4 C 0.0909694 0.529076 0.277758 0
M  V30 5 C -1.04521 -0.207863 0.0209943 0
M  V30 6 C -2.34331 0.257467 0.431036 0
M  V30 7 O -3.35639 -0.460359 0.169136 0
M  V30 8 C -2.55594 1.52515 1.13961 0
M  V30 9 C -0.876524 -1.40734 -0.645258 0
M  V30 10 C 0.368322 -1.84092 -1.03178 0
M  V30 11 C 1.49405 -1.09612 -0.769497 0
M  V30 12 N 2.77842 -1.58227 -1.18919 0
M  V30 13 N -2.05809 -2.15547 -0.902426 0
M  V30 14 H 1.73689 1.95731 1.76226 0
M  V30 15 H 3.39841 2.44535 1.13759 0
M  V30 16 H 1.88645 2.88875 0.24206 0
M  V30 17 H 4.90541e-05 1.48464 0.803076 0
M  V30 18 H -1.71974 1.75639 1.8644 0
M  V30 19 H -3.53915 1.60971 1.61934 0
M  V30 20 H -2.50464 2.38233 0.405032 0
M  V30 21 H 0.421548 -2.8002 -1.55456 0
M  V30 22 H 3.25252 -2.37809 -0.716784 0
M  V30 23 H 3.28799 -1.14622 -1.99581 0
M  V30 24 H -2.6067 -1.93369 -1.75336 0
M  V30 25 H -2.31188 -2.89487 -0.213821 0
M  V30 END ATOM
M  V30 BEGIN BOND
M  V30 1 1 1 2
M  V30 2 1 2 3
M  V30 3 2 3 4
M  V30 4 1 4 5
M  V30 5 1 5 6
M  V30 6 2 6 7
M  V30 7 1 6 8
M  V30 8 2 5 9
M  V30 9 1 9 10
M  V30 10 2 10 11
M  V30 11 1 11 12
M  V30 12 1 9 13
M  V30 13 1 11 3
M  V30 14 1 1 14
M  V30 15 1 1 15
M  V30 16 1 1 16
M  V30 17 1 4 17
M  V30 18 1 8 18
M  V30 19 1 8 19
M  V30 20 1 8 20
M  V30 21 1 10 21
M  V30 22 1 12 22
M  V30 23 1 12 23
M  V30 24 1 13 24
M  V30 25 1 13 25
M  V30 END BOND
M  V30 END CTAB
M  END
