
     RDKit          3D

  0  0  0  0  0  0  0  0  0  0999 V3000
M  V30 BEGIN CTAB
M  V30 COUNTS 53 55 0 0 0
M  V30 BEGIN ATOM
M  V30 1 N -6.0377 -2.61427 1.37514 0
M  V30 2 C -5.85298 -1.57544 0.888359 0
M  V30 3 C -5.60243 -0.298334 0.27661 0
M  V30 4 C -6.23077 0.828303 0.797678 0
M  V30 5 N -7.11006 0.785294 1.90611 0
M  V30 6 C -5.95817 2.02859 0.175546 0
M  V30 7 C -5.1168 2.10751 -0.894369 0
M  V30 8 N -4.52854 0.977957 -1.36469 0
M  V30 9 C -4.75326 -0.218148 -0.803564 0
M  V30 10 S -3.98232 -1.69036 -1.4233 0
M  V30 11 C -2.39766 -2.04614 -0.643739 0
M  V30 12 C -1.36865 -1.04327 -0.958508 0
M  V30 13 O -1.66196 -0.079969 -1.70189 0
M  V30 14 C -0.0285184 -1.15922 -0.42099 0
M  V30 15 C 0.509726 -2.11447 0.425741 0
M  V30 16 C 1.83684 -1.82066 0.677422 0
M  V30 17 N 2.12445 -0.694117 -0.00463533 0
M  V30 18 C 1.0224 -0.292775 -0.660857 0
M  V30 19 C 0.932189 0.904192 -1.5212 0
M  V30 20 C 3.40864 -0.0826845 0.0111188 0
M  V30 21 C 3.64416 1.07385 0.708027 0
M  V30 22 C 4.8964 1.66512 0.719889 0
M  V30 23 C 5.97061 1.14076 0.044475 0
M  V30 24 C 5.72307 -0.0448234 -0.668108 0
M  V30 25 C 4.47789 -0.620426 -0.671677 0
M  V30 26 O 7.23791 1.68151 0.018131 0
M  V30 27 C 7.67769 2.82747 0.644122 0
M  V30 28 F 8.72446 2.60481 1.5274 0
M  V30 29 F 8.12043 3.79273 -0.269876 0
M  V30 30 C 2.76601 -2.59781 1.53461 0
M  V30 31 C -1.91644 -3.38843 -1.14943 0
M  V30 32 N -4.8875 3.38672 -1.48061 0
M  V30 33 H -7.6971 -0.0921637 2.00664 0
M  V30 34 H -7.19433 1.55678 2.5964 0
M  V30 35 H -6.43707 2.9225 0.564353 0
M  V30 36 H -2.5317 -2.04113 0.456654 0
M  V30 37 H -0.027497 -2.97244 0.835902 0
M  V30 38 H 0.196818 1.59715 -1.05285 0
M  V30 39 H 1.89187 1.421 -1.63963 0
M  V30 40 H 0.563142 0.627568 -2.54589 0
M  V30 41 H 2.82694 1.52316 1.25524 0
M  V30 42 H 5.02805 2.58983 1.29465 0
M  V30 43 H 6.55228 -0.489414 -1.21617 0
M  V30 44 H 4.32019 -1.54856 -1.24028 0
M  V30 45 H 6.86534 3.32413 1.20197 0
M  V30 46 H 2.36328 -3.57339 1.80631 0
M  V30 47 H 3.7437 -2.8053 1.00793 0
M  V30 48 H 3.03427 -2.0019 2.44897 0
M  V30 49 H -0.874107 -3.37496 -1.46891 0
M  V30 50 H -2.50085 -3.68933 -2.0695 0
M  V30 51 H -2.16083 -4.15796 -0.391014 0
M  V30 52 H -4.68757 3.49877 -2.50147 0
M  V30 53 H -4.91391 4.2622 -0.893494 0
M  V30 END ATOM
M  V30 BEGIN BOND
M  V30 1 3 1 2
M  V30 2 1 2 3
M  V30 3 2 3 4
M  V30 4 1 4 5
M  V30 5 1 4 6
M  V30 6 2 6 7
M  V30 7 1 7 8
M  V30 8 2 8 9
M  V30 9 1 9 10
M  V30 10 1 10 11
M  V30 11 1 11 12
M  V30 12 2 12 13
M  V30 13 1 12 14
M  V30 14 1 14 15
M  V30 15 2 15 16
M  V30 16 1 16 17
M  V30 17 1 17 18
M  V30 18 1 18 19
M  V30 19 1 17 20
M  V30 20 2 20 21
M  V30 21 1 21 22
M  V30 22 2 22 23
M  V30 23 1 23 24
M  V30 24 2 24 25
M  V30 25 1 23 26
M  V30 26 1 26 27
M  V30 27 1 27 28
M  V30 28 1 27 29
M  V30 29 1 16 30
M  V30 30 1 11 31
M  V30 31 1 7 32
M  V30 32 1 9 3
M  V30 33 2 18 14
M  V30 34 1 25 20
M  V30 35 1 5 33
M  V30 36 1 5 34
M  V30 37 1 6 35
M  V30 38 1 11 36
M  V30 39 1 15 37
M  V30 40 1 19 38
M  V30 41 1 19 39
M  V30 42 1 19 40
M  V30 43 1 21 41
M  V30 44 1 22 42
M  V30 45 1 24 43
M  V30 46 1 25 44
M  V30 47 1 27 45
M  V30 48 1 30 46
M  V30 49 1 30 47
M  V30 50 1 30 48
M  V30 51 1 31 49
M  V30 52 1 31 50
M  V30 53 1 31 51
M  V30 54 1 32 52
M  V30 55 1 32 53
M  V30 END BOND
M  V30 END CTAB
M  END
