
     RDKit          3D

  0  0  0  0  0  0  0  0  0  0999 V3000
M  V30 BEGIN CTAB
M  V30 COUNTS 52 55 0 0 0
M  V30 BEGIN ATOM
M  V30 1 N -4.31885 -3.538 1.13831 0
M  V30 2 C -3.16578 -3.39774 1.10436 0
M  V30 3 C -1.71473 -3.2485 1.06485 0
M  V30 4 C -0.901835 -4.27626 1.45173 0
M  V30 5 N -1.47161 -5.49503 1.89511 0
M  V30 6 N 0.422606 -4.07364 1.39054 0
M  V30 7 C 0.924298 -2.87483 0.95379 0
M  V30 8 C 0.172864 -1.80457 0.551792 0
M  V30 9 C -1.21527 -2.03839 0.624122 0
M  V30 10 C -2.1555 -1.00457 0.234771 0
M  V30 11 C -2.66383 -0.966101 -1.04232 0
M  V30 12 C -3.58768 -0.044224 -1.47879 0
M  V30 13 C -4.02417 0.894253 -0.573394 0
M  V30 14 C -3.51431 0.867848 0.733973 0
M  V30 15 C -2.59211 -0.0700043 1.13109 0
M  V30 16 C -5.0088 1.9338 -0.909756 0
M  V30 17 C -6.21851 1.89307 0.00726161 0
M  V30 18 C -4.34295 3.28004 -0.717642 0
M  V30 19 C 0.862815 -0.69382 0.146962 0
M  V30 20 N 0.197862 0.532112 -0.318212 0
M  V30 21 C 2.20386 -0.766024 0.18558 0
M  V30 22 S 2.54059 -2.3212 0.763583 0
M  V30 23 C 3.17246 0.286893 -0.195487 0
M  V30 24 O 2.70859 1.35098 -0.593156 0
M  V30 25 N 4.53464 -0.0462118 -0.0605289 0
M  V30 26 C 5.66043 0.741378 -0.340741 0
M  V30 27 C 5.57196 2.051 -0.737148 0
M  V30 28 C 6.70131 2.81476 -1.01758 0
M  V30 29 C 7.96055 2.28432 -0.908163 0
M  V30 30 C 8.04971 0.970637 -0.510297 0
M  V30 31 C 6.95238 0.202674 -0.229892 0
M  V30 32 Br 9.52108 3.32093 -1.29142 0
M  V30 33 H -1.73082 -6.2233 1.20489 0
M  V30 34 H -1.64981 -5.70574 2.91194 0
M  V30 35 H -2.35977 -1.68767 -1.82231 0
M  V30 36 H -3.97047 -0.0324065 -2.4778 0
M  V30 37 H -3.85575 1.60792 1.4566 0
M  V30 38 H -2.24181 -0.0200111 2.18012 0
M  V30 39 H -5.30939 1.84601 -1.96719 0
M  V30 40 H -5.9577 2.21239 1.02377 0
M  V30 41 H -6.97069 2.58217 -0.422078 0
M  V30 42 H -6.69261 0.877499 0.00129298 0
M  V30 43 H -4.50398 3.58035 0.352493 0
M  V30 44 H -4.7945 4.03613 -1.3892 0
M  V30 45 H -3.27372 3.15362 -0.948007 0
M  V30 46 H -0.00933359 1.31838 0.294977 0
M  V30 47 H -0.0515717 0.593132 -1.32547 0
M  V30 48 H 4.75995 -1.02896 0.30484 0
M  V30 49 H 4.61103 2.58006 -0.855917 0
M  V30 50 H 6.62303 3.8542 -1.33197 0
M  V30 51 H 9.05941 0.540041 -0.420425 0
M  V30 52 H 7.05642 -0.849393 0.0870039 0
M  V30 END ATOM
M  V30 BEGIN BOND
M  V30 1 3 1 2
M  V30 2 1 2 3
M  V30 3 2 3 4
M  V30 4 1 4 5
M  V30 5 1 4 6
M  V30 6 2 6 7
M  V30 7 1 7 8
M  V30 8 2 8 9
M  V30 9 1 9 10
M  V30 10 2 10 11
M  V30 11 1 11 12
M  V30 12 2 12 13
M  V30 13 1 13 14
M  V30 14 2 14 15
M  V30 15 1 13 16
M  V30 16 1 16 17
M  V30 17 1 16 18
M  V30 18 1 8 19
M  V30 19 1 19 20
M  V30 20 2 19 21
M  V30 21 1 21 22
M  V30 22 1 21 23
M  V30 23 2 23 24
M  V30 24 1 23 25
M  V30 25 1 25 26
M  V30 26 2 26 27
M  V30 27 1 27 28
M  V30 28 2 28 29
M  V30 29 1 29 30
M  V30 30 2 30 31
M  V30 31 1 29 32
M  V30 32 1 9 3
M  V30 33 1 15 10
M  V30 34 1 31 26
M  V30 35 1 22 7
M  V30 36 1 5 33
M  V30 37 1 5 34
M  V30 38 1 11 35
M  V30 39 1 12 36
M  V30 40 1 14 37
M  V30 41 1 15 38
M  V30 42 1 16 39
M  V30 43 1 17 40
M  V30 44 1 17 41
M  V30 45 1 17 42
M  V30 46 1 18 43
M  V30 47 1 18 44
M  V30 48 1 18 45
M  V30 49 1 20 46
M  V30 50 1 20 47
M  V30 51 1 25 48
M  V30 52 1 27 49
M  V30 53 1 28 50
M  V30 54 1 30 51
M  V30 55 1 31 52
M  V30 END BOND
M  V30 END CTAB
M  END
