
     RDKit          3D

  0  0  0  0  0  0  0  0  0  0999 V3000
M  V30 BEGIN CTAB
M  V30 COUNTS 65 65 0 0 0
M  V30 BEGIN ATOM
M  V30 1 C -0.974206 -0.577289 4.1053 0
M  V30 2 C -0.375619 -0.0732534 2.80812 0
M  V30 3 C 0.341752 -1.17032 2.09172 0
M  V30 4 C 0.950581 -0.768684 0.80165 0 CFG=2
M  V30 5 C 0.0521048 -0.320789 -0.269603 0
M  V30 6 O 0.678191 0.159413 -1.29771 0
M  V30 7 N -1.34396 -0.35768 -0.305231 0
M  V30 8 C -2.10925 0.131624 -1.44139 0 CFG=1
M  V30 9 C -2.87075 -0.91414 -2.12407 0
M  V30 10 O -2.81292 -2.13044 -1.72864 0
M  V30 11 O -3.68655 -0.673848 -3.2163 0
M  V30 12 C -2.81707 1.40602 -1.16917 0
M  V30 13 C -3.79882 1.446 -0.0657347 0
M  V30 14 C -4.96665 0.50211 -0.197341 0
M  V30 15 N -5.87947 0.634144 0.926544 0
M  V30 16 C -6.67036 1.78092 1.15777 0
M  V30 17 N -6.45028 2.50163 2.19523 0
M  V30 18 N -7.70295 2.14811 0.262892 0
M  V30 19 N 2.07228 -1.54548 0.356123 0
M  V30 20 C 3.44119 -1.16686 0.479721 0
M  V30 21 O 3.60713 -0.0228469 1.03222 0
M  V30 22 C 4.59536 -1.93692 0.0580215 0 CFG=1
M  V30 23 C 4.78163 -2.19239 -1.39231 0
M  V30 24 C 4.93358 -1.01963 -2.25119 0
M  V30 25 C 6.19574 -0.470144 -2.40693 0
M  V30 26 C 6.32654 0.622353 -3.22738 0
M  V30 27 C 5.2803 1.20548 -3.90503 0
M  V30 28 C 4.04152 0.633077 -3.72676 0
M  V30 29 C 3.86224 -0.463806 -2.91349 0
M  V30 30 N 5.79441 -1.29134 0.612384 0
M  V30 31 C 0.580096 1.05702 3.19332 0
M  V30 32 H -0.186287 -1.15873 4.6158 0
M  V30 33 H -1.90352 -1.12811 3.97865 0
M  V30 34 H -1.20022 0.323062 4.72452 0
M  V30 35 H -1.16425 0.383071 2.22151 0
M  V30 36 H -0.382703 -2.01001 1.98004 0
M  V30 37 H 1.15536 -1.52513 2.78346 0
M  V30 38 H 1.48542 0.257025 1.0857 0
M  V30 39 H -1.88635 -0.767129 0.477919 0
M  V30 40 H -1.28939 0.425621 -2.19439 0
M  V30 41 H -3.75019 0.240905 -3.64695 0
M  V30 42 H -2.05295 2.21147 -1.05845 0
M  V30 43 H -3.39281 1.65213 -2.11739 0
M  V30 44 H -4.26201 2.48149 -0.097483 0
M  V30 45 H -3.34278 1.39746 0.949778 0
M  V30 46 H -5.57184 0.72707 -1.1024 0
M  V30 47 H -4.68352 -0.552022 -0.252136 0
M  V30 48 H -5.9511 -0.157553 1.59382 0
M  V30 49 H -7.01019 3.3654 2.41409 0
M  V30 50 H -7.55836 2.08633 -0.784529 0
M  V30 51 H -8.60328 2.47833 0.642481 0
M  V30 52 H 1.91872 -2.49044 -0.111455 0
M  V30 53 H 4.58339 -2.95175 0.557604 0
M  V30 54 H 5.69471 -2.82004 -1.52501 0
M  V30 55 H 3.92963 -2.80748 -1.75922 0
M  V30 56 H 7.06794 -0.889095 -1.89418 0
M  V30 57 H 7.31454 1.05591 -3.35177 0
M  V30 58 H 5.44683 2.08007 -4.54807 0
M  V30 59 H 3.19351 1.05102 -4.23359 0
M  V30 60 H 2.85522 -0.864037 -2.82948 0
M  V30 61 H 6.55994 -2.02555 0.520231 0
M  V30 62 H 5.60853 -1.23107 1.65568 0
M  V30 63 H 0.731059 1.72769 2.32832 0
M  V30 64 H 1.51032 0.663228 3.61966 0
M  V30 65 H 0.0608517 1.6388 3.98634 0
M  V30 END ATOM
M  V30 BEGIN BOND
M  V30 1 1 1 2
M  V30 2 1 2 3
M  V30 3 1 3 4
M  V30 4 1 4 5
M  V30 5 2 5 6
M  V30 6 1 5 7
M  V30 7 1 7 8
M  V30 8 1 8 9
M  V30 9 2 9 10
M  V30 10 1 9 11
M  V30 11 1 8 12
M  V30 12 1 12 13
M  V30 13 1 13 14
M  V30 14 1 14 15
M  V30 15 1 15 16
M  V30 16 2 16 17 CFG=2
M  V30 17 1 16 18
M  V30 18 1 4 19
M  V30 19 1 19 20
M  V30 20 2 20 21
M  V30 21 1 20 22
M  V30 22 1 22 23
M  V30 23 1 23 24
M  V30 24 2 24 25
M  V30 25 1 25 26
M  V30 26 2 26 27
M  V30 27 1 27 28
M  V30 28 2 28 29
M  V30 29 1 22 30
M  V30 30 1 2 31
M  V30 31 1 29 24
M  V30 32 1 1 32
M  V30 33 1 1 33
M  V30 34 1 1 34
M  V30 35 1 2 35
M  V30 36 1 3 36
M  V30 37 1 3 37
M  V30 38 1 4 38 CFG=1
M  V30 39 1 7 39
M  V30 40 1 8 40 CFG=3
M  V30 41 1 11 41
M  V30 42 1 12 42
M  V30 43 1 12 43
M  V30 44 1 13 44
M  V30 45 1 13 45
M  V30 46 1 14 46
M  V30 47 1 14 47
M  V30 48 1 15 48
M  V30 49 1 17 49
M  V30 50 1 18 50
M  V30 51 1 18 51
M  V30 52 1 19 52
M  V30 53 1 22 53 CFG=1
M  V30 54 1 23 54
M  V30 55 1 23 55
M  V30 56 1 25 56
M  V30 57 1 26 57
M  V30 58 1 27 58
M  V30 59 1 28 59
M  V30 60 1 29 60
M  V30 61 1 30 61
M  V30 62 1 30 62
M  V30 63 1 31 63
M  V30 64 1 31 64
M  V30 65 1 31 65
M  V30 END BOND
M  V30 END CTAB
M  END
