
     RDKit          3D

  0  0  0  0  0  0  0  0  0  0999 V3000
M  V30 BEGIN CTAB
M  V30 COUNTS 19 19 0 0 0
M  V30 BEGIN ATOM
M  V30 1 N -0.655279 1.93227 -1.3269 0
M  V30 2 C 0.00426133 0.907238 -0.609852 0
M  V30 3 N 1.35847 0.923157 -0.435111 0
M  V30 4 C 1.95207 -0.0658323 0.250859 0
M  V30 5 N 3.35786 -0.111063 0.470012 0
M  V30 6 N 1.22293 -1.08701 0.776333 0
M  V30 7 C -0.112873 -1.13087 0.621191 0
M  V30 8 O -0.779852 -2.07575 1.10844 0
M  V30 9 C -0.748796 -0.121873 -0.0827885 0
M  V30 10 C -2.20851 -0.104597 -0.292201 0
M  V30 11 O -2.79574 -1.22019 0.310368 0
M  V30 12 H -1.03514 1.78719 -2.27858 0
M  V30 13 H -0.768417 2.86571 -0.894962 0
M  V30 14 H 3.74389 -0.572627 1.32089 0
M  V30 15 H 4.01758 0.315914 -0.216201 0
M  V30 16 H 1.65444 -1.8695 1.31388 0
M  V30 17 H -2.59972 0.837944 0.142108 0
M  V30 18 H -2.45487 -0.168759 -1.37896 0
M  V30 19 H -3.15228 -1.04135 1.20147 0
M  V30 END ATOM
M  V30 BEGIN BOND
M  V30 1 1 1 2
M  V30 2 1 2 3
M  V30 3 2 3 4
M  V30 4 1 4 5
M  V30 5 1 4 6
M  V30 6 1 6 7
M  V30 7 2 7 8
M  V30 8 1 7 9
M  V30 9 1 9 10
M  V30 10 1 10 11
M  V30 11 2 9 2
M  V30 12 1 1 12
M  V30 13 1 1 13
M  V30 14 1 5 14
M  V30 15 1 5 15
M  V30 16 1 6 16
M  V30 17 1 10 17
M  V30 18 1 10 18
M  V30 19 1 11 19
M  V30 END BOND
M  V30 END CTAB
M  END
