
     RDKit          3D

  0  0  0  0  0  0  0  0  0  0999 V3000
M  V30 BEGIN CTAB
M  V30 COUNTS 40 42 0 0 0
M  V30 BEGIN ATOM
M  V30 1 N 6.17627 1.06699 1.96086 0
M  V30 2 C 5.58396 0.196916 1.00988 0
M  V30 3 C 6.413 -0.637326 0.293135 0
M  V30 4 C 5.82565 -1.4781 -0.627993 0
M  V30 5 C 4.44308 -1.48389 -0.826894 0
M  V30 6 C 3.62991 -0.644236 -0.102603 0
M  V30 7 C 4.21025 0.201 0.822 0
M  V30 8 C 2.18645 -0.623035 -0.283788 0
M  V30 9 N 1.46332 0.188275 0.428313 0
M  V30 10 N 0.0474594 0.224631 0.266191 0
M  V30 11 C -0.643592 1.45306 0.251078 0
M  V30 12 O 0.0818649 2.49506 0.390625 0
M  V30 13 C -2.0683 1.6506 0.0961178 0
M  V30 14 N -2.64194 2.87816 0.101785 0
M  V30 15 N -3.91743 2.72314 -0.0574215 0
M  V30 16 N -4.25354 1.45525 -0.172416 0
M  V30 17 C -3.1051 0.765745 -0.0784684 0
M  V30 18 C -2.99503 -0.701732 -0.153377 0
M  V30 19 C -5.5791 0.970561 -0.357216 0
M  V30 20 N -6.37911 1.08866 -1.44548 0
M  V30 21 O -7.52082 0.504491 -1.20804 0
M  V30 22 N -7.52045 -0.00019357 -0.0071918 0
M  V30 23 C -6.32313 0.266355 0.567052 0
M  V30 24 N -5.87612 -0.0927999 1.87263 0
M  V30 25 C 1.47407 -1.49129 -1.25418 0
M  V30 26 H 6.88059 1.75175 1.61991 0
M  V30 27 H 5.93275 1.04224 2.97066 0
M  V30 28 H 7.47106 -0.648251 0.430068 0
M  V30 29 H 6.44043 -2.16353 -1.22615 0
M  V30 30 H 4.03404 -2.16599 -1.56431 0
M  V30 31 H 3.63454 0.895719 1.43489 0
M  V30 32 H -0.368562 -0.722632 0.16837 0
M  V30 33 H -4.02589 -1.13182 -0.357553 0
M  V30 34 H -2.60248 -1.14053 0.791462 0
M  V30 35 H -2.38375 -1.0761 -0.992717 0
M  V30 36 H -5.52568 0.599788 2.56823 0
M  V30 37 H -5.88665 -1.10097 2.18422 0
M  V30 38 H 2.08809 -1.87925 -2.06351 0
M  V30 39 H 0.599783 -0.889599 -1.64075 0
M  V30 40 H 1.00012 -2.34713 -0.692861 0
M  V30 END ATOM
M  V30 BEGIN BOND
M  V30 1 1 1 2
M  V30 2 2 2 3
M  V30 3 1 3 4
M  V30 4 2 4 5
M  V30 5 1 5 6
M  V30 6 2 6 7
M  V30 7 1 6 8
M  V30 8 2 8 9
M  V30 9 1 9 10
M  V30 10 1 10 11
M  V30 11 2 11 12
M  V30 12 1 11 13
M  V30 13 1 13 14
M  V30 14 2 14 15
M  V30 15 1 15 16
M  V30 16 1 16 17
M  V30 17 1 17 18
M  V30 18 1 16 19
M  V30 19 2 19 20
M  V30 20 1 20 21
M  V30 21 1 21 22
M  V30 22 2 22 23
M  V30 23 1 23 24
M  V30 24 1 8 25
M  V30 25 1 7 2
M  V30 26 2 17 13
M  V30 27 1 23 19
M  V30 28 1 1 26
M  V30 29 1 1 27
M  V30 30 1 3 28
M  V30 31 1 4 29
M  V30 32 1 5 30
M  V30 33 1 7 31
M  V30 34 1 10 32
M  V30 35 1 18 33
M  V30 36 1 18 34
M  V30 37 1 18 35
M  V30 38 1 24 36
M  V30 39 1 24 37
M  V30 40 1 25 38
M  V30 41 1 25 39
M  V30 42 1 25 40
M  V30 END BOND
M  V30 END CTAB
M  END
