
     RDKit          3D

  0  0  0  0  0  0  0  0  0  0999 V3000
M  V30 BEGIN CTAB
M  V30 COUNTS 27 28 0 0 0
M  V30 BEGIN ATOM
M  V30 1 N 5.08427 -0.827559 0.640558 0
M  V30 2 C 3.84936 -0.372846 0.0935914 0
M  V30 3 C 3.76254 0.396841 -1.04456 0
M  V30 4 C 2.39954 0.611874 -1.22069 0
M  V30 5 O 1.89159 1.27351 -2.15315 0
M  V30 6 N 1.70819 0.00264535 -0.239272 0
M  V30 7 N 2.59254 -0.576778 0.530754 0
M  V30 8 C 0.288708 -0.024672 -0.0481688 0
M  V30 9 C -0.327906 0.652246 0.985791 0
M  V30 10 C -1.69329 0.62463 1.16774 0
M  V30 11 C -2.50591 -0.0894488 0.312851 0
M  V30 12 C -1.8979 -0.768171 -0.72221 0
M  V30 13 C -0.529266 -0.736188 -0.898659 0
M  V30 14 S -4.23922 -0.140687 0.521477 0
M  V30 15 N -4.93334 1.15171 -0.361056 0
M  V30 16 O -4.51361 0.101419 1.98404 0
M  V30 17 O -4.81866 -1.46392 0.169037 0
M  V30 18 H 5.90299 -1.07887 0.0472755 0
M  V30 19 H 5.21576 -0.927013 1.67168 0
M  V30 20 H 4.58688 0.75323 -1.66317 0
M  V30 21 H 2.34395 -1.12846 1.37947 0
M  V30 22 H 0.305365 1.21147 1.65578 0
M  V30 23 H -2.19089 1.15673 1.98257 0
M  V30 24 H -2.54525 -1.32867 -1.39168 0
M  V30 25 H -0.0471437 -1.26847 -1.71124 0
M  V30 26 H -5.40346 0.85364 -1.235 0
M  V30 27 H -4.28583 1.94182 -0.453756 0
M  V30 END ATOM
M  V30 BEGIN BOND
M  V30 1 1 1 2
M  V30 2 2 2 3
M  V30 3 1 3 4
M  V30 4 2 4 5
M  V30 5 1 4 6
M  V30 6 1 6 7
M  V30 7 1 6 8
M  V30 8 2 8 9
M  V30 9 1 9 10
M  V30 10 2 10 11
M  V30 11 1 11 12
M  V30 12 2 12 13
M  V30 13 1 11 14
M  V30 14 1 14 15
M  V30 15 2 14 16
M  V30 16 2 14 17
M  V30 17 1 7 2
M  V30 18 1 13 8
M  V30 19 1 1 18
M  V30 20 1 1 19
M  V30 21 1 3 20
M  V30 22 1 7 21
M  V30 23 1 9 22
M  V30 24 1 10 23
M  V30 25 1 12 24
M  V30 26 1 13 25
M  V30 27 1 15 26
M  V30 28 1 15 27
M  V30 END BOND
M  V30 END CTAB
M  END
