
     RDKit          3D

  0  0  0  0  0  0  0  0  0  0999 V3000
M  V30 BEGIN CTAB
M  V30 COUNTS 88 89 0 0 0
M  V30 BEGIN ATOM
M  V30 1 C 0.445392 0.727051 -0.952411 0 CFG=1
M  V30 2 C 0.462213 1.90963 -1.82363 0
M  V30 3 C 1.56321 2.04333 -2.79985 0
M  V30 4 C 2.9597 2.12367 -2.3103 0
M  V30 5 N 3.79654 2.33818 -3.51577 0
M  V30 6 C 3.69528 3.56817 -4.18731 0
M  V30 7 N 3.3492 4.7592 -3.49395 0
M  V30 8 N 3.92877 3.57488 -5.45419 0
M  V30 9 N 1.55923 0.578031 -0.0834286 0
M  V30 10 C 2.07954 -0.724464 0.160141 0
M  V30 11 O 1.49986 -1.69191 -0.447964 0
M  V30 12 C 3.22665 -1.02572 1.05724 0 CFG=2
M  V30 13 C 4.41171 -0.192003 0.685444 0
M  V30 14 C 5.58693 -0.451942 1.53688 0
M  V30 15 C 5.75173 0.236342 2.74291 0
M  V30 16 C 6.84858 0.0117738 3.54464 0
M  V30 17 C 7.80945 -0.893278 3.18043 0
M  V30 18 O 8.91033 -1.1056 4.00587 0
M  V30 19 C 7.66007 -1.58056 1.99221 0
M  V30 20 C 6.55344 -1.35725 1.17843 0
M  V30 21 N 3.46243 -2.44741 0.999489 0
M  V30 22 C 2.43338 -3.34506 1.36825 0
M  V30 23 N 1.64768 -3.09327 2.53363 0
M  V30 24 N 2.15865 -4.40649 0.691773 0
M  V30 25 C -0.766666 0.796058 -0.0255481 0
M  V30 26 O -0.613354 0.846541 1.20636 0
M  V30 27 N -2.02953 0.793611 -0.670692 0
M  V30 28 C -3.21022 0.868848 0.190561 0 CFG=1
M  V30 29 C -4.14751 1.88043 -0.381083 0
M  V30 30 C -4.61194 1.56298 -1.76729 0
M  V30 31 C -3.99809 2.0593 -2.89601 0
M  V30 32 C -4.44921 1.73092 -4.17346 0
M  V30 33 C -5.52786 0.895233 -4.35875 0
M  V30 34 C -6.14173 0.39925 -3.2192 0
M  V30 35 C -5.69253 0.727174 -1.95664 0
M  V30 36 C -3.79161 -0.499889 0.307672 0
M  V30 37 O -3.43156 -1.35059 -0.545 0
M  V30 38 N -4.69663 -0.877455 1.31138 0
M  V30 39 C -5.18221 -0.0367104 2.36491 0
M  V30 40 C -4.29634 -0.0862911 3.60596 0
M  V30 41 C -5.18912 -2.25152 1.28905 0
M  V30 42 C -4.24022 -3.15706 2.08419 0
M  V30 43 C -4.79294 -4.51774 2.02771 0
M  V30 44 O -5.3316 -5.08245 3.1617 0
M  V30 45 O -4.77747 -5.15953 0.962915 0
M  V30 46 H 0.339525 -0.212121 -1.55686 0
M  V30 47 H -0.533393 1.99214 -2.39621 0
M  V30 48 H 0.435928 2.87245 -1.20207 0
M  V30 49 H 1.32967 2.90772 -3.50415 0
M  V30 50 H 1.53978 1.15815 -3.5282 0
M  V30 51 H 3.30204 1.18532 -1.8401 0
M  V30 52 H 3.08058 2.96563 -1.61062 0
M  V30 53 H 4.42198 1.5758 -3.82231 0
M  V30 54 H 2.62364 4.78654 -2.76234 0
M  V30 55 H 3.85333 5.63592 -3.74032 0
M  V30 56 H 3.88138 4.4174 -6.03004 0
M  V30 57 H 2.00974 1.38952 0.382301 0
M  V30 58 H 2.9344 -0.71272 2.09935 0
M  V30 59 H 4.11513 0.873415 0.855985 0
M  V30 60 H 4.65055 -0.26487 -0.40342 0
M  V30 61 H 4.98818 0.943923 3.01478 0
M  V30 62 H 6.96622 0.550832 4.47793 0
M  V30 63 H 9.76883 -0.567641 3.91856 0
M  V30 64 H 8.40753 -2.29199 1.69758 0
M  V30 65 H 6.50573 -1.93 0.251777 0
M  V30 66 H 4.37193 -2.80566 0.691414 0
M  V30 67 H 1.97418 -3.59468 3.39931 0
M  V30 68 H 0.821456 -2.46723 2.53536 0
M  V30 69 H 1.39754 -5.05396 0.980068 0
M  V30 70 H -2.1312 0.735163 -1.68754 0
M  V30 71 H -2.94527 1.15764 1.21988 0
M  V30 72 H -3.52477 2.83362 -0.479311 0
M  V30 73 H -5.00077 2.17739 0.210333 0
M  V30 74 H -3.16014 2.70749 -2.786 0
M  V30 75 H -3.96798 2.12108 -5.0572 0
M  V30 76 H -5.8784 0.639527 -5.36531 0
M  V30 77 H -6.98965 -0.253576 -3.3861 0
M  V30 78 H -6.19452 0.326464 -1.08272 0
M  V30 79 H -5.34223 1.01566 2.11887 0
M  V30 80 H -6.19643 -0.400885 2.73486 0
M  V30 81 H -4.31376 0.937643 4.07249 0
M  V30 82 H -4.67639 -0.8077 4.3322 0
M  V30 83 H -3.23532 -0.297099 3.36568 0
M  V30 84 H -5.2387 -2.63387 0.267959 0
M  V30 85 H -6.15383 -2.2827 1.82064 0
M  V30 86 H -4.22884 -2.80982 3.11828 0
M  V30 87 H -3.22448 -3.10508 1.61366 0
M  V30 88 H -5.66484 -4.51122 3.93428 0
M  V30 END ATOM
M  V30 BEGIN BOND
M  V30 1 1 1 2
M  V30 2 1 2 3
M  V30 3 1 3 4
M  V30 4 1 4 5
M  V30 5 1 5 6
M  V30 6 1 6 7
M  V30 7 2 6 8 CFG=2
M  V30 8 1 1 9
M  V30 9 1 9 10
M  V30 10 2 10 11
M  V30 11 1 10 12
M  V30 12 1 12 13
M  V30 13 1 13 14
M  V30 14 2 14 15
M  V30 15 1 15 16
M  V30 16 2 16 17
M  V30 17 1 17 18
M  V30 18 1 17 19
M  V30 19 2 19 20
M  V30 20 1 12 21
M  V30 21 1 21 22
M  V30 22 1 22 23
M  V30 23 2 22 24 CFG=2
M  V30 24 1 1 25
M  V30 25 2 25 26
M  V30 26 1 25 27
M  V30 27 1 27 28
M  V30 28 1 28 29
M  V30 29 1 29 30
M  V30 30 2 30 31
M  V30 31 1 31 32
M  V30 32 2 32 33
M  V30 33 1 33 34
M  V30 34 2 34 35
M  V30 35 1 28 36
M  V30 36 2 36 37
M  V30 37 1 36 38
M  V30 38 1 38 39
M  V30 39 1 39 40
M  V30 40 1 38 41
M  V30 41 1 41 42
M  V30 42 1 42 43
M  V30 43 1 43 44
M  V30 44 2 43 45
M  V30 45 1 20 14
M  V30 46 1 35 30
M  V30 47 1 1 46 CFG=3
M  V30 48 1 2 47
M  V30 49 1 2 48
M  V30 50 1 3 49
M  V30 51 1 3 50
M  V30 52 1 4 51
M  V30 53 1 4 52
M  V30 54 1 5 53
M  V30 55 1 7 54
M  V30 56 1 7 55
M  V30 57 1 8 56
M  V30 58 1 9 57
M  V30 59 1 12 58 CFG=1
M  V30 60 1 13 59
M  V30 61 1 13 60
M  V30 62 1 15 61
M  V30 63 1 16 62
M  V30 64 1 18 63
M  V30 65 1 19 64
M  V30 66 1 20 65
M  V30 67 1 21 66
M  V30 68 1 23 67
M  V30 69 1 23 68
M  V30 70 1 24 69
M  V30 71 1 27 70
M  V30 72 1 28 71 CFG=1
M  V30 73 1 29 72
M  V30 74 1 29 73
M  V30 75 1 31 74
M  V30 76 1 32 75
M  V30 77 1 33 76
M  V30 78 1 34 77
M  V30 79 1 35 78
M  V30 80 1 39 79
M  V30 81 1 39 80
M  V30 82 1 40 81
M  V30 83 1 40 82
M  V30 84 1 40 83
M  V30 85 1 41 84
M  V30 86 1 41 85
M  V30 87 1 42 86
M  V30 88 1 42 87
M  V30 89 1 44 88
M  V30 END BOND
M  V30 END CTAB
M  END
