
     RDKit          3D

  0  0  0  0  0  0  0  0  0  0999 V3000
M  V30 BEGIN CTAB
M  V30 COUNTS 26 27 0 0 0
M  V30 BEGIN ATOM
M  V30 1 N 4.7367 0.162569 1.12232 0
M  V30 2 N 3.40416 0.176133 1.49284 0
M  V30 3 C 2.30991 -0.00395665 0.589749 0
M  V30 4 C 1.00288 0.0634451 1.03471 0
M  V30 5 C -0.0741616 -0.13369 0.170492 0
M  V30 6 C -1.37348 -0.0838962 0.660843 0
M  V30 7 C -2.4641 -0.302369 -0.145289 0
M  V30 8 N -3.81487 -0.281817 0.298295 0
M  V30 9 N -4.42037 0.613848 1.14031 0
M  V30 10 C -2.18272 -0.571777 -1.49426 0
M  V30 11 C -0.907421 -0.618252 -1.98034 0
M  V30 12 C 0.177752 -0.401496 -1.15791 0
M  V30 13 C 1.46804 -0.468347 -1.60947 0
M  V30 14 C 2.51556 -0.272622 -0.746499 0
M  V30 15 H 5.18838 -0.772261 1.08721 0
M  V30 16 H 4.92874 0.794727 0.333456 0
M  V30 17 H 3.17182 0.319711 2.4935 0
M  V30 18 H 0.782363 0.270318 2.07389 0
M  V30 19 H -1.51862 0.135106 1.72222 0
M  V30 20 H -4.40988 -1.0968 -0.0867127 0
M  V30 21 H -5.44917 0.313976 1.23157 0
M  V30 22 H -4.53401 1.59004 0.719996 0
M  V30 23 H -3.00939 -0.748966 -2.14269 0
M  V30 24 H -0.674681 -0.82231 -3.02765 0
M  V30 25 H 1.61535 -0.680582 -2.67548 0
M  V30 26 H 3.5312 -0.329476 -1.1051 0
M  V30 END ATOM
M  V30 BEGIN BOND
M  V30 1 1 1 2
M  V30 2 1 2 3
M  V30 3 2 3 4
M  V30 4 1 4 5
M  V30 5 2 5 6
M  V30 6 1 6 7
M  V30 7 1 7 8
M  V30 8 1 8 9
M  V30 9 2 7 10
M  V30 10 1 10 11
M  V30 11 2 11 12
M  V30 12 1 12 13
M  V30 13 2 13 14
M  V30 14 1 14 3
M  V30 15 1 12 5
M  V30 16 1 1 15
M  V30 17 1 1 16
M  V30 18 1 2 17
M  V30 19 1 4 18
M  V30 20 1 6 19
M  V30 21 1 8 20
M  V30 22 1 9 21
M  V30 23 1 9 22
M  V30 24 1 10 23
M  V30 25 1 11 24
M  V30 26 1 13 25
M  V30 27 1 14 26
M  V30 END BOND
M  V30 END CTAB
M  END
