
     RDKit          3D

  0  0  0  0  0  0  0  0  0  0999 V3000
M  V30 BEGIN CTAB
M  V30 COUNTS 30 31 0 0 0
M  V30 BEGIN ATOM
M  V30 1 N 4.29993 -2.34165 1.31538 0
M  V30 2 C 3.47054 -1.37168 0.69083 0
M  V30 3 N 2.16624 -1.46563 0.685443 0
M  V30 4 C 1.31398 -0.567389 0.0416161 0
M  V30 5 S -0.375521 -0.847232 0.125535 0
M  V30 6 C -1.5032 0.0996613 -0.848358 0
M  V30 7 C -2.75155 0.304682 -0.0151713 0
M  V30 8 C -3.82067 -0.60878 -0.100688 0
M  V30 9 C -3.75272 -1.86563 -0.890247 0
M  V30 10 N -4.77095 -0.0988445 0.691687 0
M  V30 11 O -4.34545 1.02809 1.22462 0
M  V30 12 C -3.11923 1.29632 0.803702 0
M  V30 13 C -2.2944 2.47813 1.1534 0
M  V30 14 N 1.96348 0.426128 -0.563433 0
M  V30 15 C 3.32657 0.577936 -0.583442 0
M  V30 16 C 4.13918 -0.335172 0.0443817 0
M  V30 17 N 3.8822 1.68874 -1.22591 0
M  V30 18 H 4.12125 -2.5441 2.30839 0
M  V30 19 H 5.05666 -2.78576 0.763631 0
M  V30 20 H -1.73073 -0.215538 -1.86302 0
M  V30 21 H -1.06272 1.16398 -0.994229 0
M  V30 22 H -2.70182 -2.01012 -1.27376 0
M  V30 23 H -4.43309 -1.72492 -1.73491 0
M  V30 24 H -4.06725 -2.75382 -0.303335 0
M  V30 25 H -1.39127 2.23206 1.65519 0
M  V30 26 H -2.01177 3.01545 0.17578 0
M  V30 27 H -2.94412 3.25868 1.64067 0
M  V30 28 H 5.19331 -0.272812 -0.00802045 0
M  V30 29 H 4.89023 1.76342 -1.35058 0
M  V30 30 H 3.25289 2.47581 -1.56515 0
M  V30 END ATOM
M  V30 BEGIN BOND
M  V30 1 1 1 2
M  V30 2 2 2 3
M  V30 3 1 3 4
M  V30 4 1 4 5
M  V30 5 1 5 6
M  V30 6 1 6 7
M  V30 7 1 7 8
M  V30 8 1 8 9
M  V30 9 2 8 10
M  V30 10 1 10 11
M  V30 11 1 11 12
M  V30 12 1 12 13
M  V30 13 2 4 14
M  V30 14 1 14 15
M  V30 15 2 15 16
M  V30 16 1 15 17
M  V30 17 1 16 2
M  V30 18 2 12 7
M  V30 19 1 1 18
M  V30 20 1 1 19
M  V30 21 1 6 20
M  V30 22 1 6 21
M  V30 23 1 9 22
M  V30 24 1 9 23
M  V30 25 1 9 24
M  V30 26 1 13 25
M  V30 27 1 13 26
M  V30 28 1 13 27
M  V30 29 1 16 28
M  V30 30 1 17 29
M  V30 31 1 17 30
M  V30 END BOND
M  V30 END CTAB
M  END
