
     RDKit          3D

  0  0  0  0  0  0  0  0  0  0999 V3000
M  V30 BEGIN CTAB
M  V30 COUNTS 36 37 0 0 0
M  V30 BEGIN ATOM
M  V30 1 N -4.50371 2.65136 -1.61769 0
M  V30 2 C -3.85319 1.61508 -0.884861 0
M  V30 3 C -2.5001 1.45459 -0.971222 0
M  V30 4 C -1.81987 0.442211 -0.262256 0
M  V30 5 C -2.4725 -0.438292 0.554778 0
M  V30 6 C -3.86548 -0.239087 0.614976 0
M  V30 7 C -4.52232 0.741966 -0.0731335 0
M  V30 8 C -1.8937 -1.46997 1.38723 0
M  V30 9 N -0.69194 -1.58853 1.6459 0
M  V30 10 N 0.354977 -0.859073 1.27122 0
M  V30 11 C 1.43985 -1.47002 0.560735 0
M  V30 12 O 1.38268 -2.69684 0.302155 0
M  V30 13 C 2.6126 -0.737088 0.120489 0
M  V30 14 C 3.67018 -1.39661 -0.504966 0
M  V30 15 C 4.80264 -0.760798 -0.944139 0
M  V30 16 C 4.90538 0.594493 -0.761057 0
M  V30 17 C 3.9 1.30122 -0.152794 0
M  V30 18 C 2.77107 0.619799 0.276813 0
M  V30 19 N 6.05701 1.27876 -1.2012 0
M  V30 20 C -2.8731 -2.49399 1.96434 0
M  V30 21 H -4.78586 2.55604 -2.61827 0
M  V30 22 H -4.72115 3.56211 -1.1554 0
M  V30 23 H -1.91283 2.11724 -1.60007 0
M  V30 24 H -0.762224 0.366823 -0.41075 0
M  V30 25 H -4.40693 -0.93839 1.26927 0
M  V30 26 H -5.58658 0.817385 0.037451 0
M  V30 27 H 0.487356 0.180882 1.47591 0
M  V30 28 H 3.61541 -2.47001 -0.662852 0
M  V30 29 H 5.59981 -1.29385 -1.42176 0
M  V30 30 H 3.95765 2.36454 0.00195433 0
M  V30 31 H 2.00734 1.22045 0.748729 0
M  V30 32 H 6.6315 0.882114 -1.96101 0
M  V30 33 H 6.33791 2.17445 -0.775038 0
M  V30 34 H -3.43375 -1.95331 2.75335 0
M  V30 35 H -2.33178 -3.32703 2.40482 0
M  V30 36 H -3.59636 -2.80861 1.19781 0
M  V30 END ATOM
M  V30 BEGIN BOND
M  V30 1 1 1 2
M  V30 2 2 2 3
M  V30 3 1 3 4
M  V30 4 2 4 5
M  V30 5 1 5 6
M  V30 6 2 6 7
M  V30 7 1 5 8
M  V30 8 2 8 9
M  V30 9 1 9 10
M  V30 10 1 10 11
M  V30 11 2 11 12
M  V30 12 1 11 13
M  V30 13 2 13 14
M  V30 14 1 14 15
M  V30 15 2 15 16
M  V30 16 1 16 17
M  V30 17 2 17 18
M  V30 18 1 16 19
M  V30 19 1 8 20
M  V30 20 1 7 2
M  V30 21 1 18 13
M  V30 22 1 1 21
M  V30 23 1 1 22
M  V30 24 1 3 23
M  V30 25 1 4 24
M  V30 26 1 6 25
M  V30 27 1 7 26
M  V30 28 1 10 27
M  V30 29 1 14 28
M  V30 30 1 15 29
M  V30 31 1 17 30
M  V30 32 1 18 31
M  V30 33 1 19 32
M  V30 34 1 19 33
M  V30 35 1 20 34
M  V30 36 1 20 35
M  V30 37 1 20 36
M  V30 END BOND
M  V30 END CTAB
M  END
