
     RDKit          3D

  0  0  0  0  0  0  0  0  0  0999 V3000
M  V30 BEGIN CTAB
M  V30 COUNTS 37 38 0 0 0
M  V30 BEGIN ATOM
M  V30 1 N -3.34335 2.12355 -0.30905 0
M  V30 2 C -4.0435 0.879692 -0.420507 0
M  V30 3 C -3.61272 -0.145651 0.579097 0
M  V30 4 N -2.2448 -0.530253 0.525715 0
M  V30 5 C -1.84595 -1.26565 -0.62507 0
M  V30 6 C -0.791031 -2.30534 -0.377713 0
M  V30 7 O 0.49677 -1.8729 -0.354398 0
M  V30 8 C 0.645507 -0.533893 -0.0260954 0 CFG=1
M  V30 9 C -0.0121848 -0.361097 1.33208 0
M  V30 10 C -1.31732 0.378935 1.07727 0
M  V30 11 C 2.04466 -0.110566 -0.0198087 0
M  V30 12 C 3.02916 -0.855593 0.5938 0
M  V30 13 C 4.34249 -0.390793 0.555996 0
M  V30 14 C 4.65738 0.787851 -0.0792935 0
M  V30 15 N 3.69928 1.50445 -0.671285 0
M  V30 16 C 2.45179 1.0629 -0.635528 0
M  V30 17 N 5.99183 1.3014 -0.145389 0
M  V30 18 H -3.11783 2.43589 0.608347 0
M  V30 19 H -3.85833 2.85186 -0.821788 0
M  V30 20 H -4.04932 0.485004 -1.45071 0
M  V30 21 H -5.12191 1.11625 -0.180714 0
M  V30 22 H -3.85072 0.213999 1.60363 0
M  V30 23 H -4.23736 -1.05282 0.412293 0
M  V30 24 H -1.64379 -0.641193 -1.53156 0
M  V30 25 H -2.7624 -1.85695 -0.939163 0
M  V30 26 H -0.872529 -3.07365 -1.20056 0
M  V30 27 H -1.10473 -2.85547 0.542107 0
M  V30 28 H 0.12736 0.0459968 -0.82711 0
M  V30 29 H 0.662254 0.181288 2.01362 0
M  V30 30 H -0.207275 -1.3473 1.83524 0
M  V30 31 H -1.67398 0.716625 2.05688 0
M  V30 32 H -1.0214 1.2254 0.400002 0
M  V30 33 H 2.81656 -1.77428 1.09533 0
M  V30 34 H 5.15867 -0.938719 1.02282 0
M  V30 35 H 1.67191 1.64576 -1.11842 0
M  V30 36 H 6.70786 0.756635 -0.666992 0
M  V30 37 H 6.22893 2.19862 0.319518 0
M  V30 END ATOM
M  V30 BEGIN BOND
M  V30 1 1 1 2
M  V30 2 1 2 3
M  V30 3 1 3 4
M  V30 4 1 4 5
M  V30 5 1 5 6
M  V30 6 1 6 7
M  V30 7 1 7 8
M  V30 8 1 8 9
M  V30 9 1 9 10
M  V30 10 1 8 11
M  V30 11 2 11 12
M  V30 12 1 12 13
M  V30 13 2 13 14
M  V30 14 1 14 15
M  V30 15 2 15 16
M  V30 16 1 14 17
M  V30 17 1 10 4
M  V30 18 1 16 11
M  V30 19 1 1 18
M  V30 20 1 1 19
M  V30 21 1 2 20
M  V30 22 1 2 21
M  V30 23 1 3 22
M  V30 24 1 3 23
M  V30 25 1 5 24
M  V30 26 1 5 25
M  V30 27 1 6 26
M  V30 28 1 6 27
M  V30 29 1 8 28 CFG=3
M  V30 30 1 9 29
M  V30 31 1 9 30
M  V30 32 1 10 31
M  V30 33 1 10 32
M  V30 34 1 12 33
M  V30 35 1 13 34
M  V30 36 1 16 35
M  V30 37 1 17 36
M  V30 38 1 17 37
M  V30 END BOND
M  V30 END CTAB
M  END
