
     RDKit          3D

  0  0  0  0  0  0  0  0  0  0999 V3000
M  V30 BEGIN CTAB
M  V30 COUNTS 36 39 0 0 0
M  V30 BEGIN ATOM
M  V30 1 N 7.85518 0.237931 1.39808 0
M  V30 2 C 6.59229 0.124728 0.805381 0
M  V30 3 C 6.4732 -0.153222 -0.532956 0
M  V30 4 C 5.28804 -0.276777 -1.17222 0
M  V30 5 C 4.07469 -0.119951 -0.467244 0
M  V30 6 C 4.18089 0.157889 0.870055 0
M  V30 7 C 5.4256 0.281414 1.5115 0
M  V30 8 S 2.53873 0.266524 1.32716 0
M  V30 9 C 1.82597 -0.0475777 -0.207831 0
M  V30 10 N 2.88262 -0.215308 -0.971378 0
M  V30 11 C 0.370414 -0.112216 -0.574415 0
M  V30 12 C -0.407967 0.160735 0.706148 0
M  V30 13 C -1.84668 0.0842664 0.283952 0
M  V30 14 N -2.93384 0.244452 1.01179 0
M  V30 15 C -4.10946 0.137005 0.451014 0
M  V30 16 C -4.15631 -0.140968 -0.885685 0
M  V30 17 S -2.49119 -0.233557 -1.26689 0
M  V30 18 C -5.36217 -0.278822 -1.59358 0
M  V30 19 C -6.5746 -0.132143 -0.935308 0
M  V30 20 C -6.48819 0.145849 0.402985 0
M  V30 21 C -5.345 0.285015 1.1148 0
M  V30 22 N -7.79106 -0.269533 -1.64136 0
M  V30 23 H 8.34113 1.17951 1.34536 0
M  V30 24 H 8.31252 -0.57482 1.87967 0
M  V30 25 H 7.4011 -0.28406 -1.12441 0
M  V30 26 H 5.29573 -0.498665 -2.23656 0
M  V30 27 H 5.39047 0.500736 2.56248 0
M  V30 28 H 0.178228 0.662977 -1.33946 0
M  V30 29 H 0.15107 -1.13881 -0.911205 0
M  V30 30 H -0.148911 1.11778 1.15629 0
M  V30 31 H -0.241942 -0.700029 1.38526 0
M  V30 32 H -5.27445 -0.49682 -2.63716 0
M  V30 33 H -7.46223 0.258738 0.908061 0
M  V30 34 H -5.41583 0.504525 2.16629 0
M  V30 35 H -8.33774 -1.15562 -1.57109 0
M  V30 36 H -8.19033 0.478815 -2.24614 0
M  V30 END ATOM
M  V30 BEGIN BOND
M  V30 1 1 1 2
M  V30 2 2 2 3
M  V30 3 1 3 4
M  V30 4 2 4 5
M  V30 5 1 5 6
M  V30 6 2 6 7
M  V30 7 1 6 8
M  V30 8 1 8 9
M  V30 9 2 9 10
M  V30 10 1 9 11
M  V30 11 1 11 12
M  V30 12 1 12 13
M  V30 13 2 13 14
M  V30 14 1 14 15
M  V30 15 2 15 16
M  V30 16 1 16 17
M  V30 17 1 16 18
M  V30 18 2 18 19
M  V30 19 1 19 20
M  V30 20 2 20 21
M  V30 21 1 19 22
M  V30 22 1 7 2
M  V30 23 1 17 13
M  V30 24 1 10 5
M  V30 25 1 21 15
M  V30 26 1 1 23
M  V30 27 1 1 24
M  V30 28 1 3 25
M  V30 29 1 4 26
M  V30 30 1 7 27
M  V30 31 1 11 28
M  V30 32 1 11 29
M  V30 33 1 12 30
M  V30 34 1 12 31
M  V30 35 1 18 32
M  V30 36 1 20 33
M  V30 37 1 21 34
M  V30 38 1 22 35
M  V30 39 1 22 36
M  V30 END BOND
M  V30 END CTAB
M  END
