
     RDKit          3D

  0  0  0  0  0  0  0  0  0  0999 V3000
M  V30 BEGIN CTAB
M  V30 COUNTS 30 31 0 0 0
M  V30 BEGIN ATOM
M  V30 1 C 5.16139 0.135524 0.84495 0
M  V30 2 C 3.76518 0.0347303 0.359152 0
M  V30 3 C 2.73217 -0.162897 1.23993 0
M  V30 4 C 1.40034 -0.26007 0.788303 0
M  V30 5 C 1.07773 -0.162762 -0.531149 0
M  V30 6 N -0.211471 -0.220064 -1.0964 0
M  V30 7 C -1.44502 -0.0541906 -0.462965 0
M  V30 8 N -1.57579 0.234437 0.835855 0
M  V30 9 C -2.75887 0.412364 1.4452 0
M  V30 10 N -2.80523 0.719329 2.84259 0
M  V30 11 N -3.89568 0.301139 0.738688 0
M  V30 12 C -3.86617 0.012706 -0.576781 0
M  V30 13 N -5.0466 -0.109045 -1.33903 0
M  V30 14 C -2.62092 -0.163839 -1.169 0
M  V30 15 N -2.57604 -0.466915 -2.547 0
M  V30 16 O -2.38781 -1.66391 -2.89354 0
M  V30 17 C 2.14042 0.0389237 -1.42487 0
M  V30 18 C 3.43465 0.131765 -0.973236 0
M  V30 19 H 5.81376 0.538933 0.0561334 0
M  V30 20 H 5.58688 -0.822107 1.16791 0
M  V30 21 H 5.23222 0.840011 1.70681 0
M  V30 22 H 2.91319 -0.249731 2.30878 0
M  V30 23 H 0.620084 -0.429878 1.50907 0
M  V30 24 H -0.292786 -0.4224 -2.16261 0
M  V30 25 H -2.01541 0.5009 3.48196 0
M  V30 26 H -3.64896 1.17414 3.23996 0
M  V30 27 H -5.42929 -1.04063 -1.54954 0
M  V30 28 H -5.52214 0.739353 -1.68291 0
M  V30 29 H 1.94331 0.125202 -2.5012 0
M  V30 30 H 4.27687 0.288983 -1.65506 0
M  V30 END ATOM
M  V30 BEGIN BOND
M  V30 1 1 1 2
M  V30 2 2 2 3
M  V30 3 1 3 4
M  V30 4 2 4 5
M  V30 5 1 5 6
M  V30 6 1 6 7
M  V30 7 2 7 8
M  V30 8 1 8 9
M  V30 9 1 9 10
M  V30 10 2 9 11
M  V30 11 1 11 12
M  V30 12 1 12 13
M  V30 13 2 12 14
M  V30 14 1 14 15
M  V30 15 2 15 16
M  V30 16 1 5 17
M  V30 17 2 17 18
M  V30 18 1 18 2
M  V30 19 1 14 7
M  V30 20 1 1 19
M  V30 21 1 1 20
M  V30 22 1 1 21
M  V30 23 1 3 22
M  V30 24 1 4 23
M  V30 25 1 6 24
M  V30 26 1 10 25
M  V30 27 1 10 26
M  V30 28 1 13 27
M  V30 29 1 13 28
M  V30 30 1 17 29
M  V30 31 1 18 30
M  V30 END BOND
M  V30 END CTAB
M  END
