
     RDKit          3D

  0  0  0  0  0  0  0  0  0  0999 V3000
M  V30 BEGIN CTAB
M  V30 COUNTS 29 30 0 0 0
M  V30 BEGIN ATOM
M  V30 1 O 5.16905 -1.09593 0.149628 0
M  V30 2 N 4.06962 -0.30451 -0.107838 0
M  V30 3 C 2.86887 -0.664915 0.126016 0
M  V30 4 C 1.70732 0.179813 -0.14943 0
M  V30 5 C 0.433662 -0.249715 0.118282 0
M  V30 6 C -0.644777 0.548701 -0.143068 0
M  V30 7 C -0.404223 1.79853 -0.684422 0
M  V30 8 N 0.846032 2.19819 -0.937995 0
M  V30 9 C 1.884 1.42787 -0.68572 0
M  V30 10 N 3.18811 1.93614 -0.988774 0
M  V30 11 C -2.02308 0.123406 0.128834 0
M  V30 12 C -2.41452 -1.19456 0.0381434 0
M  V30 13 C -3.73403 -1.57795 0.301798 0
M  V30 14 C -4.68001 -0.645672 0.660158 0
M  V30 15 C -4.29164 0.670611 0.7515 0
M  V30 16 C -2.98023 1.0451 0.488435 0
M  V30 17 N 2.63952 -1.95145 0.68294 0
M  V30 18 H 6.08943 -0.747917 0.278946 0
M  V30 19 H 0.2449 -1.23225 0.543958 0
M  V30 20 H -1.25911 2.43893 -0.895095 0
M  V30 21 H 3.6008 1.88582 -1.95341 0
M  V30 22 H 3.71687 2.3622 -0.206464 0
M  V30 23 H -1.68085 -1.91971 -0.239685 0
M  V30 24 H -4.02817 -2.62555 0.224971 0
M  V30 25 H -5.69162 -0.983553 0.856597 0
M  V30 26 H -5.05362 1.38349 1.03547 0
M  V30 27 H -2.70308 2.09108 0.568328 0
M  V30 28 H 2.26652 -2.11797 1.63052 0
M  V30 29 H 2.86426 -2.77824 0.0923938 0
M  V30 END ATOM
M  V30 BEGIN BOND
M  V30 1 1 1 2
M  V30 2 2 2 3
M  V30 3 1 3 4
M  V30 4 2 4 5
M  V30 5 1 5 6
M  V30 6 2 6 7
M  V30 7 1 7 8
M  V30 8 2 8 9
M  V30 9 1 9 10
M  V30 10 1 6 11
M  V30 11 2 11 12
M  V30 12 1 12 13
M  V30 13 2 13 14
M  V30 14 1 14 15
M  V30 15 2 15 16
M  V30 16 1 3 17
M  V30 17 1 9 4
M  V30 18 1 16 11
M  V30 19 1 1 18
M  V30 20 1 5 19
M  V30 21 1 7 20
M  V30 22 1 10 21
M  V30 23 1 10 22
M  V30 24 1 12 23
M  V30 25 1 13 24
M  V30 26 1 14 25
M  V30 27 1 15 26
M  V30 28 1 16 27
M  V30 29 1 17 28
M  V30 30 1 17 29
M  V30 END BOND
M  V30 END CTAB
M  END
