
     RDKit          3D

  0  0  0  0  0  0  0  0  0  0999 V3000
M  V30 BEGIN CTAB
M  V30 COUNTS 81 87 0 0 0
M  V30 BEGIN ATOM
M  V30 1 N -2.5531 -3.85956 -2.38411 0
M  V30 2 C -3.56379 -3.98322 -1.39449 0
M  V30 3 N -4.65094 -4.77621 -1.48859 0
M  V30 4 N -5.40136 -4.66468 -0.399322 0
M  V30 5 C -4.78314 -3.77665 0.419509 0
M  V30 6 C -5.084 -3.27958 1.64705 0
M  V30 7 C -4.2787 -2.36512 2.28823 0
M  V30 8 C -3.09541 -1.8999 1.69419 0
M  V30 9 C -2.30198 -0.938224 2.46004 0
M  V30 10 N -1.20416 -0.314461 1.79714 0
M  V30 11 C -1.3062 1.0229 1.17186 0 CFG=2
M  V30 12 C -1.39033 0.982172 -0.30318 0
M  V30 13 C -1.49606 2.39347 -0.859114 0
M  V30 14 C -1.6313 2.39065 -2.32485 0
M  V30 15 C -0.510369 2.45861 -3.11071 0
M  V30 16 C -0.584683 2.45223 -4.49634 0
M  V30 17 C -1.82926 2.37473 -5.09538 0
M  V30 18 C -2.96551 2.30592 -4.32772 0
M  V30 19 C -2.86043 2.3144 -2.92701 0
M  V30 20 C -0.286981 1.91006 1.77752 0 CFG=1
M  V30 21 O -0.802125 2.24499 3.07306 0
M  V30 22 C 1.10214 1.31394 1.92198 0 CFG=1
M  V30 23 C 1.45011 1.48497 3.37596 0
M  V30 24 C 2.73527 0.999529 3.82345 0
M  V30 25 C 2.82354 -0.311563 4.30145 0
M  V30 26 C 3.99269 -0.850301 4.75163 0
M  V30 27 C 5.14556 -0.122491 4.75497 0
M  V30 28 C 5.09754 1.17224 4.2917 0
M  V30 29 C 3.90632 1.72306 3.83263 0
M  V30 30 N 1.20262 -0.0462416 1.48182 0
M  V30 31 C 2.38404 -0.528802 0.838518 0
M  V30 32 C 2.38161 -0.501755 -0.62361 0
M  V30 33 C 1.83259 -1.53851 -1.35383 0
M  V30 34 C 1.81051 -1.56179 -2.72009 0
M  V30 35 C 2.34851 -0.526061 -3.42961 0
M  V30 36 N 2.45918 -0.294933 -4.76581 0
M  V30 37 N 3.06346 0.861129 -4.92994 0
M  V30 38 C 3.35408 1.39857 -3.71566 0
M  V30 39 N 4.00224 2.63347 -3.54233 0
M  V30 40 C 2.90641 0.529107 -2.74108 0
M  V30 41 C 2.92346 0.541977 -1.34005 0
M  V30 42 C 0.0877273 -0.900767 1.72392 0
M  V30 43 O 0.20535 -2.13684 1.87407 0
M  V30 44 C -2.82462 -2.42117 0.459862 0
M  V30 45 C -3.62753 -3.33567 -0.184712 0
M  V30 46 H -1.59862 -4.24935 -2.26709 0
M  V30 47 H -2.73097 -3.36098 -3.29081 0
M  V30 48 H -6.29973 -5.17003 -0.212176 0
M  V30 49 H -6.00011 -3.63554 2.11829 0
M  V30 50 H -4.52579 -1.97477 3.26445 0
M  V30 51 H -2.96329 -0.112271 2.8907 0
M  V30 52 H -1.97757 -1.47137 3.40361 0
M  V30 53 H -2.31606 1.42672 1.52285 0
M  V30 54 H -2.29975 0.400706 -0.600145 0
M  V30 55 H -0.549073 0.506967 -0.824564 0
M  V30 56 H -0.594786 2.98552 -0.574718 0
M  V30 57 H -2.38852 2.89532 -0.437596 0
M  V30 58 H 0.486254 2.52177 -2.6883 0
M  V30 59 H 0.313038 2.50677 -5.09587 0
M  V30 60 H -1.87597 2.36975 -6.18005 0
M  V30 61 H -3.91674 2.24596 -4.82033 0
M  V30 62 H -3.78528 2.2592 -2.37697 0
M  V30 63 H -0.260255 2.88692 1.2718 0
M  V30 64 H -1.27496 1.48049 3.46678 0
M  V30 65 H 1.77112 1.91521 1.25807 0
M  V30 66 H 1.37285 2.57286 3.64684 0
M  V30 67 H 0.640784 0.984623 3.94923 0
M  V30 68 H 1.92739 -0.922229 4.31443 0
M  V30 69 H 4.07123 -1.87862 5.12848 0
M  V30 70 H 6.09 -0.515839 5.10392 0
M  V30 71 H 6.0158 1.74548 4.29518 0
M  V30 72 H 3.8871 2.72475 3.47863 0
M  V30 73 H 2.54524 -1.5696 1.20924 0
M  V30 74 H 3.24233 0.0804645 1.25913 0
M  V30 75 H 1.38667 -2.39805 -0.829619 0
M  V30 76 H 1.37368 -2.38595 -3.30379 0
M  V30 77 H 2.11906 -0.935308 -5.511 0
M  V30 78 H 4.62993 2.80709 -2.74117 0
M  V30 79 H 3.85072 3.39228 -4.23087 0
M  V30 80 H 3.36698 1.38259 -0.860933 0
M  V30 81 H -1.91564 -2.08519 -0.0386646 0
M  V30 END ATOM
M  V30 BEGIN BOND
M  V30 1 1 1 2
M  V30 2 2 2 3
M  V30 3 1 3 4
M  V30 4 1 4 5
M  V30 5 2 5 6
M  V30 6 1 6 7
M  V30 7 2 7 8
M  V30 8 1 8 9
M  V30 9 1 9 10
M  V30 10 1 10 11
M  V30 11 1 11 12
M  V30 12 1 12 13
M  V30 13 1 13 14
M  V30 14 2 14 15
M  V30 15 1 15 16
M  V30 16 2 16 17
M  V30 17 1 17 18
M  V30 18 2 18 19
M  V30 19 1 11 20
M  V30 20 1 20 21
M  V30 21 1 20 22
M  V30 22 1 22 23
M  V30 23 1 23 24
M  V30 24 2 24 25
M  V30 25 1 25 26
M  V30 26 2 26 27
M  V30 27 1 27 28
M  V30 28 2 28 29
M  V30 29 1 22 30
M  V30 30 1 30 31
M  V30 31 1 31 32
M  V30 32 2 32 33
M  V30 33 1 33 34
M  V30 34 2 34 35
M  V30 35 1 35 36
M  V30 36 1 36 37
M  V30 37 2 37 38
M  V30 38 1 38 39
M  V30 39 1 38 40
M  V30 40 2 40 41
M  V30 41 1 30 42
M  V30 42 2 42 43
M  V30 43 1 8 44
M  V30 44 2 44 45
M  V30 45 1 45 2
M  V30 46 1 45 5
M  V30 47 1 42 10
M  V30 48 1 19 14
M  V30 49 1 29 24
M  V30 50 1 41 32
M  V30 51 1 40 35
M  V30 52 1 1 46
M  V30 53 1 1 47
M  V30 54 1 4 48
M  V30 55 1 6 49
M  V30 56 1 7 50
M  V30 57 1 9 51
M  V30 58 1 9 52
M  V30 59 1 11 53 CFG=1
M  V30 60 1 12 54
M  V30 61 1 12 55
M  V30 62 1 13 56
M  V30 63 1 13 57
M  V30 64 1 15 58
M  V30 65 1 16 59
M  V30 66 1 17 60
M  V30 67 1 18 61
M  V30 68 1 19 62
M  V30 69 1 20 63 CFG=3
M  V30 70 1 21 64
M  V30 71 1 22 65 CFG=3
M  V30 72 1 23 66
M  V30 73 1 23 67
M  V30 74 1 25 68
M  V30 75 1 26 69
M  V30 76 1 27 70
M  V30 77 1 28 71
M  V30 78 1 29 72
M  V30 79 1 31 73
M  V30 80 1 31 74
M  V30 81 1 33 75
M  V30 82 1 34 76
M  V30 83 1 36 77
M  V30 84 1 39 78
M  V30 85 1 39 79
M  V30 86 1 41 80
M  V30 87 1 44 81
M  V30 END BOND
M  V30 END CTAB
M  END
