
     RDKit          3D

  0  0  0  0  0  0  0  0  0  0999 V3000
M  V30 BEGIN CTAB
M  V30 COUNTS 18 18 0 0 0
M  V30 BEGIN ATOM
M  V30 1 N 2.49032 -0.00657897 0.10271 0
M  V30 2 C 1.13673 -0.364465 0.00609189 0
M  V30 3 C 0.814146 -1.71863 -0.161968 0
M  V30 4 C -0.49628 -2.09528 -0.26024 0
M  V30 5 C -1.49131 -1.13425 -0.192491 0
M  V30 6 C -1.17621 0.196274 -0.027539 0
M  V30 7 N -2.20489 1.18445 0.0411236 0
M  V30 8 C 0.130748 0.57726 0.0711602 0
M  V30 9 N 0.464293 1.94272 0.242749 0 CHG=1
M  V30 10 O 0.392535 2.90673 -0.709723 0 CHG=-1
M  V30 11 O 0.865519 2.27217 1.39828 0
M  V30 12 H 3.20864 -0.624738 -0.321074 0
M  V30 13 H 2.81217 0.854871 0.582669 0
M  V30 14 H 1.57019 -2.48694 -0.217399 0
M  V30 15 H -0.802388 -3.14355 -0.393035 0
M  V30 16 H -2.53347 -1.47988 -0.276024 0
M  V30 17 H -2.416 1.80693 -0.792809 0
M  V30 18 H -2.76474 1.31292 0.907516 0
M  V30 END ATOM
M  V30 BEGIN BOND
M  V30 1 1 1 2
M  V30 2 2 2 3
M  V30 3 1 3 4
M  V30 4 2 4 5
M  V30 5 1 5 6
M  V30 6 1 6 7
M  V30 7 2 6 8
M  V30 8 1 8 9
M  V30 9 1 9 10
M  V30 10 2 9 11
M  V30 11 1 8 2
M  V30 12 1 1 12
M  V30 13 1 1 13
M  V30 14 1 3 14
M  V30 15 1 4 15
M  V30 16 1 5 16
M  V30 17 1 7 17
M  V30 18 1 7 18
M  V30 END BOND
M  V30 END CTAB
M  END
