
     RDKit          3D

  0  0  0  0  0  0  0  0  0  0999 V3000
M  V30 BEGIN CTAB
M  V30 COUNTS 47 50 0 0 0
M  V30 BEGIN ATOM
M  V30 1 N -8.21026 0.24113 -0.464223 0
M  V30 2 C -6.77437 0.32616 -0.501693 0
M  V30 3 C -5.98648 -0.500311 0.277349 0
M  V30 4 C -4.61211 -0.413272 0.236309 0
M  V30 5 C -3.82265 -1.22902 1.00558 0
M  V30 6 N -4.44537 -2.17328 1.8528 0
M  V30 7 C -2.42889 -1.12236 0.947118 0
M  V30 8 C -1.82162 -0.212827 0.13126 0
M  V30 9 N -2.62598 0.577702 -0.615329 0
M  V30 10 C -3.97163 0.496274 -0.578626 0
M  V30 11 C -4.77577 1.31179 -1.34809 0
M  V30 12 C -6.15168 1.24152 -1.32245 0
M  V30 13 C -0.352145 -0.0586522 0.0314716 0
M  V30 14 C 0.51643 -0.830526 0.762731 0
M  V30 15 C 1.90194 -0.666805 0.651887 0
M  V30 16 C 2.40664 0.286544 -0.206819 0
M  V30 17 C 1.53632 1.06054 -0.940074 0
M  V30 18 C 0.187629 0.878757 -0.811649 0
M  V30 19 C 3.8677 0.509189 -0.369454 0
M  V30 20 C 4.40997 0.979794 0.958791 0
M  V30 21 C 5.91469 1.09729 0.949784 0
M  V30 22 C 6.5821 -0.129952 0.386094 0
M  V30 23 C 6.03927 -0.401433 -0.997613 0
M  V30 24 C 4.57176 -0.744673 -0.845728 0
M  V30 25 H -8.7607 0.845278 0.186211 0
M  V30 26 H -8.70177 -0.429953 -1.09269 0
M  V30 27 H -6.49934 -1.21802 0.920186 0
M  V30 28 H -4.2497 -2.09335 2.88458 0
M  V30 29 H -5.08251 -2.93779 1.51231 0
M  V30 30 H -1.84999 -1.77499 1.56107 0
M  V30 31 H -4.24265 2.02921 -1.99009 0
M  V30 32 H -6.70134 1.91995 -1.95922 0
M  V30 33 H 0.1398 -1.58718 1.44494 0
M  V30 34 H 2.5633 -1.28521 1.23678 0
M  V30 35 H 1.94751 1.81715 -1.62127 0
M  V30 36 H -0.482692 1.50707 -1.40588 0
M  V30 37 H 4.03182 1.30788 -1.09617 0
M  V30 38 H 4.01246 2.00625 1.12884 0
M  V30 39 H 4.03019 0.340402 1.75435 0
M  V30 40 H 6.24025 1.18655 2.01746 0
M  V30 41 H 6.25441 2.00537 0.435464 0
M  V30 42 H 6.37897 -0.9998 1.03857 0
M  V30 43 H 7.66907 0.0551607 0.3848 0
M  V30 44 H 6.59837 -1.22043 -1.49663 0
M  V30 45 H 6.08355 0.545649 -1.6006 0
M  V30 46 H 4.18562 -0.990236 -1.8343 0
M  V30 47 H 4.47988 -1.55255 -0.0956719 0
M  V30 END ATOM
M  V30 BEGIN BOND
M  V30 1 1 1 2
M  V30 2 2 2 3
M  V30 3 1 3 4
M  V30 4 2 4 5
M  V30 5 1 5 6
M  V30 6 1 5 7
M  V30 7 2 7 8
M  V30 8 1 8 9
M  V30 9 2 9 10
M  V30 10 1 10 11
M  V30 11 2 11 12
M  V30 12 1 8 13
M  V30 13 2 13 14
M  V30 14 1 14 15
M  V30 15 2 15 16
M  V30 16 1 16 17
M  V30 17 2 17 18
M  V30 18 1 16 19
M  V30 19 1 19 20
M  V30 20 1 20 21
M  V30 21 1 21 22
M  V30 22 1 22 23
M  V30 23 1 23 24
M  V30 24 1 12 2
M  V30 25 1 18 13
M  V30 26 1 24 19
M  V30 27 1 10 4
M  V30 28 1 1 25
M  V30 29 1 1 26
M  V30 30 1 3 27
M  V30 31 1 6 28
M  V30 32 1 6 29
M  V30 33 1 7 30
M  V30 34 1 11 31
M  V30 35 1 12 32
M  V30 36 1 14 33
M  V30 37 1 15 34
M  V30 38 1 17 35
M  V30 39 1 18 36
M  V30 40 1 19 37
M  V30 41 1 20 38
M  V30 42 1 20 39
M  V30 43 1 21 40
M  V30 44 1 21 41
M  V30 45 1 22 42
M  V30 46 1 22 43
M  V30 47 1 23 44
M  V30 48 1 23 45
M  V30 49 1 24 46
M  V30 50 1 24 47
M  V30 END BOND
M  V30 END CTAB
M  END
