
     RDKit          3D

  0  0  0  0  0  0  0  0  0  0999 V3000
M  V30 BEGIN CTAB
M  V30 COUNTS 41 43 0 0 0
M  V30 BEGIN ATOM
M  V30 1 N 1.54627 2.84101 1.56468 0
M  V30 2 C 2.32227 2.10234 0.607933 0
M  V30 3 C 1.66732 0.853338 0.252583 0
M  V30 4 C 0.386397 0.575139 0.683583 0
M  V30 5 C -0.247892 -0.620632 0.299056 0
M  V30 6 C 0.39476 -1.53424 -0.514226 0
M  V30 7 C 1.66692 -1.21822 -0.919397 0
M  V30 8 C 2.3066 -0.0603844 -0.557452 0
M  V30 9 C 3.64377 0.248408 -1.03074 0
M  V30 10 C 4.48992 -1.06203 -1.20486 0
M  V30 11 C 4.87208 0.0270581 -0.231404 0
M  V30 12 C -1.58574 -0.861066 0.813595 0
M  V30 13 C -2.2382 -2.11386 0.413344 0
M  V30 14 N -3.6864 -1.90241 0.612534 0
M  V30 15 C -4.12379 -1.10819 -0.521876 0
M  V30 16 C -3.41833 0.207133 -0.560978 0
M  V30 17 C -2.4427 0.390414 0.567703 0
M  V30 18 N -4.457 1.23638 -0.370139 0
M  V30 19 H 0.622431 3.15622 1.29254 0
M  V30 20 H 2.05311 3.28634 2.31665 0
M  V30 21 H 2.26184 2.77871 -0.341861 0
M  V30 22 H 3.41043 2.07442 0.79069 0
M  V30 23 H -0.120752 1.2743 1.32556 0
M  V30 24 H -0.0963654 -2.4379 -0.803806 0
M  V30 25 H 2.22025 -1.92747 -1.56894 0
M  V30 26 H 3.68669 0.864047 -1.97741 0
M  V30 27 H 4.14459 -1.97155 -0.716327 0
M  V30 28 H 5.0268 -1.2127 -2.13869 0
M  V30 29 H 5.7764 0.613666 -0.561577 0
M  V30 30 H 4.79184 -0.127025 0.84773 0
M  V30 31 H -1.47863 -0.872407 1.94134 0
M  V30 32 H -1.96383 -2.99668 1.03898 0
M  V30 33 H -2.13054 -2.42338 -0.624149 0
M  V30 34 H -3.79445 -1.31623 1.47166 0
M  V30 35 H -3.82415 -1.65197 -1.46762 0
M  V30 36 H -5.22038 -1.01952 -0.450641 0
M  V30 37 H -2.90139 0.433087 -1.51157 0
M  V30 38 H -1.8407 1.28443 0.331932 0
M  V30 39 H -3.01812 0.646309 1.51833 0
M  V30 40 H -4.5312 1.45324 0.655971 0
M  V30 41 H -4.1701 2.09189 -0.911146 0
M  V30 END ATOM
M  V30 BEGIN BOND
M  V30 1 1 1 2
M  V30 2 1 2 3
M  V30 3 2 3 4
M  V30 4 1 4 5
M  V30 5 2 5 6
M  V30 6 1 6 7
M  V30 7 2 7 8
M  V30 8 1 8 9
M  V30 9 1 9 10
M  V30 10 1 10 11
M  V30 11 1 5 12
M  V30 12 1 12 13
M  V30 13 1 13 14
M  V30 14 1 14 15
M  V30 15 1 15 16
M  V30 16 1 16 17
M  V30 17 1 16 18
M  V30 18 1 8 3
M  V30 19 1 11 9
M  V30 20 1 17 12
M  V30 21 1 1 19
M  V30 22 1 1 20
M  V30 23 1 2 21
M  V30 24 1 2 22
M  V30 25 1 4 23
M  V30 26 1 6 24
M  V30 27 1 7 25
M  V30 28 1 9 26
M  V30 29 1 10 27
M  V30 30 1 10 28
M  V30 31 1 11 29
M  V30 32 1 11 30
M  V30 33 1 12 31
M  V30 34 1 13 32
M  V30 35 1 13 33
M  V30 36 1 14 34
M  V30 37 1 15 35
M  V30 38 1 15 36
M  V30 39 1 16 37
M  V30 40 1 17 38
M  V30 41 1 17 39
M  V30 42 1 18 40
M  V30 43 1 18 41
M  V30 END BOND
M  V30 END CTAB
M  END
