
     RDKit          3D

  0  0  0  0  0  0  0  0  0  0999 V3000
M  V30 BEGIN CTAB
M  V30 COUNTS 20 19 0 0 0
M  V30 BEGIN ATOM
M  V30 1 C -1.86514 -0.760528 0.444325 0
M  V30 2 N -0.722665 -1.16401 -0.265792 0
M  V30 3 C 0.115928 -0.214452 -0.885752 0
M  V30 4 C 1.55074 -0.598235 -0.489461 0
M  V30 5 N 1.76288 -0.584729 0.902081 0
M  V30 6 C -0.128776 1.23027 -0.572655 0
M  V30 7 N 0.0149425 1.62873 0.779177 0
M  V30 8 H -2.69937 -0.357404 -0.204951 0
M  V30 9 H -1.73637 -0.133724 1.33278 0
M  V30 10 H -2.34454 -1.70443 0.867003 0
M  V30 11 H -0.993879 -1.97754 -0.888931 0
M  V30 12 H 0.0721419 -0.343734 -1.96996 0
M  V30 13 H 2.24617 0.086773 -1.00216 0
M  V30 14 H 1.69776 -1.60843 -0.97867 0
M  V30 15 H 1.01769 -0.738778 1.55209 0
M  V30 16 H 2.70439 -0.417241 1.22106 0
M  V30 17 H 0.466844 1.89396 -1.22034 0
M  V30 18 H -1.22549 1.44254 -0.818712 0
M  V30 19 H -0.784029 2.07132 1.23724 0
M  V30 20 H 0.85078 2.24964 0.961627 0
M  V30 END ATOM
M  V30 BEGIN BOND
M  V30 1 1 1 2
M  V30 2 1 2 3
M  V30 3 1 3 4
M  V30 4 1 4 5
M  V30 5 1 3 6
M  V30 6 1 6 7
M  V30 7 1 1 8
M  V30 8 1 1 9
M  V30 9 1 1 10
M  V30 10 1 2 11
M  V30 11 1 3 12
M  V30 12 1 4 13
M  V30 13 1 4 14
M  V30 14 1 5 15
M  V30 15 1 5 16
M  V30 16 1 6 17
M  V30 17 1 6 18
M  V30 18 1 7 19
M  V30 19 1 7 20
M  V30 END BOND
M  V30 END CTAB
M  END
