
     RDKit          3D

  0  0  0  0  0  0  0  0  0  0999 V3000
M  V30 BEGIN CTAB
M  V30 COUNTS 48 50 0 0 0
M  V30 BEGIN ATOM
M  V30 1 C -5.555 3.52755 0.137839 0
M  V30 2 O -5.53521 2.37047 -0.605807 0
M  V30 3 C -4.27141 1.84122 -0.753112 0
M  V30 4 C -3.66217 1.50264 0.586629 0
M  V30 5 C -2.2993 0.929492 0.37783 0
M  V30 6 N -1.12784 1.57846 0.317559 0
M  V30 7 N -0.124036 0.713667 0.117572 0
M  V30 8 C -0.667784 -0.511922 0.0490433 0
M  V30 9 N -1.98831 -0.359739 0.209245 0
M  V30 10 C 0.0190422 -1.78146 -0.15857 0 CFG=1
M  V30 11 C -0.277676 -2.79267 0.953597 0
M  V30 12 C 0.40053 -4.02995 0.349341 0
M  V30 13 C -0.196324 -3.99896 -1.05675 0 CFG=2
M  V30 14 C -0.479333 -2.55261 -1.363 0
M  V30 15 N -1.43619 -4.78524 -0.964943 0
M  V30 16 C 1.24442 1.08765 0.00707236 0
M  V30 17 C 2.15244 0.55468 0.87517 0
M  V30 18 C 3.47822 0.898562 0.790344 0
M  V30 19 C 3.91108 1.78446 -0.169728 0
M  V30 20 C 3.01612 2.33537 -1.05619 0
M  V30 21 C 1.67654 1.97025 -0.949204 0
M  V30 22 S 5.63198 2.19717 -0.239227 0
M  V30 23 O 6.22568 2.00406 1.13477 0
M  V30 24 O 5.84134 3.61273 -0.627062 0
M  V30 25 N 6.45662 1.09309 -1.29168 0
M  V30 26 H -4.93122 4.3477 -0.304044 0
M  V30 27 H -5.31696 3.31062 1.17743 0
M  V30 28 H -6.59731 3.96429 0.12835 0
M  V30 29 H -4.34024 0.906306 -1.3359 0
M  V30 30 H -3.59454 2.56215 -1.25686 0
M  V30 31 H -3.49118 2.43548 1.20085 0
M  V30 32 H -4.28335 0.780329 1.14608 0
M  V30 33 H 1.11273 -1.63451 -0.262865 0
M  V30 34 H 0.216608 -2.52159 1.89833 0
M  V30 35 H -1.35973 -2.91381 1.00879 0
M  V30 36 H 0.155104 -4.94203 0.893141 0
M  V30 37 H 1.4748 -3.80403 0.267471 0
M  V30 38 H 0.470274 -4.4401 -1.80217 0
M  V30 39 H 0.00221702 -2.22088 -2.30755 0
M  V30 40 H -1.59363 -2.4396 -1.40358 0
M  V30 41 H -2.11642 -4.2917 -0.346775 0
M  V30 42 H -1.14955 -5.67372 -0.453387 0
M  V30 43 H 1.82232 -0.154635 1.64797 0
M  V30 44 H 4.2248 0.472937 1.48893 0
M  V30 45 H 3.37082 3.03077 -1.80611 0
M  V30 46 H 1.002 2.42286 -1.66241 0
M  V30 47 H 6.45529 1.45829 -2.28147 0
M  V30 48 H 6.03372 0.155876 -1.19857 0
M  V30 END ATOM
M  V30 BEGIN BOND
M  V30 1 1 1 2
M  V30 2 1 2 3
M  V30 3 1 3 4
M  V30 4 1 4 5
M  V30 5 2 5 6
M  V30 6 1 6 7
M  V30 7 1 7 8
M  V30 8 2 8 9
M  V30 9 1 8 10
M  V30 10 1 10 11
M  V30 11 1 11 12
M  V30 12 1 12 13
M  V30 13 1 13 14
M  V30 14 1 13 15
M  V30 15 1 7 16
M  V30 16 2 16 17
M  V30 17 1 17 18
M  V30 18 2 18 19
M  V30 19 1 19 20
M  V30 20 2 20 21
M  V30 21 1 19 22
M  V30 22 2 22 23
M  V30 23 2 22 24
M  V30 24 1 22 25
M  V30 25 1 9 5
M  V30 26 1 14 10
M  V30 27 1 21 16
M  V30 28 1 1 26
M  V30 29 1 1 27
M  V30 30 1 1 28
M  V30 31 1 3 29
M  V30 32 1 3 30
M  V30 33 1 4 31
M  V30 34 1 4 32
M  V30 35 1 10 33 CFG=3
M  V30 36 1 11 34
M  V30 37 1 11 35
M  V30 38 1 12 36
M  V30 39 1 12 37
M  V30 40 1 13 38 CFG=3
M  V30 41 1 14 39
M  V30 42 1 14 40
M  V30 43 1 15 41
M  V30 44 1 15 42
M  V30 45 1 17 43
M  V30 46 1 18 44
M  V30 47 1 20 45
M  V30 48 1 21 46
M  V30 49 1 25 47
M  V30 50 1 25 48
M  V30 END BOND
M  V30 END CTAB
M  END
