
     RDKit          3D

  0  0  0  0  0  0  0  0  0  0999 V3000
M  V30 BEGIN CTAB
M  V30 COUNTS 33 32 0 0 0
M  V30 BEGIN ATOM
M  V30 1 C 4.25582 1.82734 -0.128582 0
M  V30 2 O 3.54354 0.683747 -0.577838 0
M  V30 3 C 3.36966 -0.453533 0.194012 0
M  V30 4 O 3.87611 -0.449274 1.34431 0
M  V30 5 C 2.63743 -1.64239 -0.254131 0
M  V30 6 N 2.61135 -2.68311 0.755693 0
M  V30 7 C 1.24546 -1.34692 -0.750177 0
M  V30 8 C 0.363581 -0.716699 0.27774 0
M  V30 9 C -0.994875 -0.483116 -0.372463 0
M  V30 10 C -1.95196 0.161579 0.622862 0
M  V30 11 N -1.43992 1.43802 1.08023 0
M  V30 12 C -3.31247 0.265189 0.0449918 0
M  V30 13 O -3.84882 -0.769399 -0.37908 0
M  V30 14 O -4.01211 1.45264 -0.0452019 0
M  V30 15 C -5.31567 1.54559 -0.600004 0
M  V30 16 H 3.8078 2.2497 0.778408 0
M  V30 17 H 5.34394 1.59548 -0.0109124 0
M  V30 18 H 4.19683 2.56823 -0.954382 0
M  V30 19 H 3.18333 -2.09102 -1.13252 0
M  V30 20 H 2.15434 -3.51924 0.334524 0
M  V30 21 H 2.03087 -2.41716 1.58279 0
M  V30 22 H 1.26102 -0.706213 -1.6542 0
M  V30 23 H 0.789791 -2.33225 -1.01763 0
M  V30 24 H 0.755954 0.200267 0.728363 0
M  V30 25 H 0.160282 -1.4188 1.13115 0
M  V30 26 H -1.42954 -1.42689 -0.749679 0
M  V30 27 H -0.924909 0.213465 -1.23029 0
M  V30 28 H -2.01187 -0.541008 1.4901 0
M  V30 29 H -2.23071 1.99935 1.4807 0
M  V30 30 H -1.0851 1.93139 0.2135 0
M  V30 31 H -5.661 2.58841 -0.388592 0
M  V30 32 H -6.03141 0.881857 -0.0858335 0
M  V30 33 H -5.33673 1.39476 -1.68514 0
M  V30 END ATOM
M  V30 BEGIN BOND
M  V30 1 1 1 2
M  V30 2 1 2 3
M  V30 3 2 3 4
M  V30 4 1 3 5
M  V30 5 1 5 6
M  V30 6 1 5 7
M  V30 7 1 7 8
M  V30 8 1 8 9
M  V30 9 1 9 10
M  V30 10 1 10 11
M  V30 11 1 10 12
M  V30 12 2 12 13
M  V30 13 1 12 14
M  V30 14 1 14 15
M  V30 15 1 1 16
M  V30 16 1 1 17
M  V30 17 1 1 18
M  V30 18 1 5 19
M  V30 19 1 6 20
M  V30 20 1 6 21
M  V30 21 1 7 22
M  V30 22 1 7 23
M  V30 23 1 8 24
M  V30 24 1 8 25
M  V30 25 1 9 26
M  V30 26 1 9 27
M  V30 27 1 10 28
M  V30 28 1 11 29
M  V30 29 1 11 30
M  V30 30 1 15 31
M  V30 31 1 15 32
M  V30 32 1 15 33
M  V30 END BOND
M  V30 END CTAB
M  END
