
     RDKit          3D

  0  0  0  0  0  0  0  0  0  0999 V3000
M  V30 BEGIN CTAB
M  V30 COUNTS 46 48 0 0 0
M  V30 BEGIN ATOM
M  V30 1 N -5.92253 0.824831 -1.91149 0
M  V30 2 C -5.016 0.677931 -0.840119 0
M  V30 3 N -4.25293 -0.422293 -0.718904 0
M  V30 4 C -3.3986 -0.513091 0.329269 0
M  V30 5 C -2.53339 -1.72822 0.492654 0
M  V30 6 N -1.19572 -1.39092 0.136269 0
M  V30 7 C -1.07373 -0.952321 -1.21214 0
M  V30 8 C 0.317264 -0.349205 -1.45629 0
M  V30 9 N 1.18016 -0.913669 -0.440702 0
M  V30 10 C 0.996772 -2.31772 -0.149748 0
M  V30 11 C -0.335218 -2.44961 0.546983 0
M  V30 12 C 2.17237 -0.209169 0.279009 0
M  V30 13 C 2.13973 -0.0883278 1.6637 0
M  V30 14 C 3.13052 0.608946 2.31619 0
M  V30 15 C 4.18278 1.20638 1.60921 0
M  V30 16 C 4.21588 1.08738 0.239415 0
M  V30 17 C 3.2242 0.390231 -0.406184 0
M  V30 18 C 3.26986 0.268158 -1.87981 0
M  V30 19 C 5.31653 1.70981 -0.522312 0
M  V30 20 N -3.34302 0.495557 1.20891 0
M  V30 21 C -4.08326 1.60085 1.12167 0
M  V30 22 N -4.94004 1.67572 0.0574664 0
M  V30 23 N -4.00723 2.65872 2.06695 0
M  V30 24 H -5.79833 1.59335 -2.58852 0
M  V30 25 H -6.71022 0.171539 -2.02689 0
M  V30 26 H -2.59466 -2.09999 1.53865 0
M  V30 27 H -2.91467 -2.56721 -0.13631 0
M  V30 28 H -1.81145 -0.158999 -1.426 0
M  V30 29 H -1.26278 -1.75071 -1.96231 0
M  V30 30 H 0.216105 0.728714 -1.39858 0
M  V30 31 H 0.639273 -0.651168 -2.47202 0
M  V30 32 H 1.0483 -2.94069 -1.06823 0
M  V30 33 H 1.82279 -2.71192 0.508304 0
M  V30 34 H -0.78417 -3.45392 0.410228 0
M  V30 35 H -0.113418 -2.3441 1.64836 0
M  V30 36 H 1.35998 -0.526348 2.23313 0
M  V30 37 H 3.13043 0.720194 3.40198 0
M  V30 38 H 4.93073 1.74076 2.17945 0
M  V30 39 H 2.49852 0.938157 -2.31639 0
M  V30 40 H 4.28087 0.482217 -2.28436 0
M  V30 41 H 3.02168 -0.765068 -2.22303 0
M  V30 42 H 4.9813 2.53287 -1.18436 0
M  V30 43 H 6.07007 2.14334 0.178537 0
M  V30 44 H 5.89223 0.969199 -1.13491 0
M  V30 45 H -3.29823 3.39632 1.929 0
M  V30 46 H -4.64875 2.68347 2.87062 0
M  V30 END ATOM
M  V30 BEGIN BOND
M  V30 1 1 1 2
M  V30 2 2 2 3
M  V30 3 1 3 4
M  V30 4 1 4 5
M  V30 5 1 5 6
M  V30 6 1 6 7
M  V30 7 1 7 8
M  V30 8 1 8 9
M  V30 9 1 9 10
M  V30 10 1 10 11
M  V30 11 1 9 12
M  V30 12 2 12 13
M  V30 13 1 13 14
M  V30 14 2 14 15
M  V30 15 1 15 16
M  V30 16 2 16 17
M  V30 17 1 17 18
M  V30 18 1 16 19
M  V30 19 2 4 20
M  V30 20 1 20 21
M  V30 21 2 21 22
M  V30 22 1 21 23
M  V30 23 1 22 2
M  V30 24 1 11 6
M  V30 25 1 17 12
M  V30 26 1 1 24
M  V30 27 1 1 25
M  V30 28 1 5 26
M  V30 29 1 5 27
M  V30 30 1 7 28
M  V30 31 1 7 29
M  V30 32 1 8 30
M  V30 33 1 8 31
M  V30 34 1 10 32
M  V30 35 1 10 33
M  V30 36 1 11 34
M  V30 37 1 11 35
M  V30 38 1 13 36
M  V30 39 1 14 37
M  V30 40 1 15 38
M  V30 41 1 18 39
M  V30 42 1 18 40
M  V30 43 1 18 41
M  V30 44 1 19 42
M  V30 45 1 19 43
M  V30 46 1 19 44
M  V30 47 1 23 45
M  V30 48 1 23 46
M  V30 END BOND
M  V30 END CTAB
M  END
