
     RDKit          3D

  0  0  0  0  0  0  0  0  0  0999 V3000
M  V30 BEGIN CTAB
M  V30 COUNTS 60 63 0 0 0
M  V30 BEGIN ATOM
M  V30 1 N 10.0323 0.512062 0.0698815 0
M  V30 2 C 8.64457 0.824265 0.158563 0
M  V30 3 N 7.85881 0.217949 1.07237 0
M  V30 4 C 6.52322 0.482241 1.14398 0
M  V30 5 O 5.79086 -0.0717772 1.98191 0
M  V30 6 N 5.98165 1.36165 0.297536 0
M  V30 7 C 6.7329 1.98136 -0.615737 0
M  V30 8 C 8.1011 1.72488 -0.709985 0
M  V30 9 C 4.53995 1.60064 0.272105 0 CFG=1
M  V30 10 C 4.15367 1.30983 -1.17296 0
M  V30 11 C 3.60169 -0.138554 -1.02778 0 CFG=2
M  V30 12 O 2.65231 -0.354588 -2.03101 0
M  V30 13 C 2.96672 0.0765322 0.317706 0 CFG=1
M  V30 14 C 2.05513 -0.959709 0.806836 0
M  V30 15 O 1.18436 -1.14984 -0.338585 0
M  V30 16 P -0.353248 -0.830377 0.189411 0
M  V30 17 O -0.495201 -0.749689 1.85155 0
M  V30 18 O -0.473778 0.709227 -0.343306 0
M  V30 19 O -1.57992 -1.54264 -0.630946 0
M  V30 20 C -2.67706 -1.77099 0.206805 0 CFG=1
M  V30 21 C -3.248 -0.374847 0.671429 0
M  V30 22 C -4.49704 -0.292029 -0.0759438 0 CFG=1
M  V30 23 O -4.92169 -1.6904 0.029649 0
M  V30 24 C -3.81618 -2.28584 -0.581395 0 CFG=2
M  V30 25 C -3.99154 -3.79977 -0.473724 0
M  V30 26 O -2.98444 -4.39182 -1.23183 0
M  V30 27 N -5.61676 0.488127 0.217011 0
M  V30 28 C -5.91624 1.68159 -0.372391 0
M  V30 29 C -7.15255 2.27163 -0.20973 0
M  V30 30 C -8.11754 1.66488 0.564417 0
M  V30 31 N -9.46181 2.1539 0.726194 0
M  V30 32 N -7.8029 0.481836 1.15325 0
M  V30 33 C -6.59695 -0.0849608 0.983573 0
M  V30 34 O -6.29088 -1.16112 1.51701 0
M  V30 35 O 3.95162 0.58485 1.07455 0
M  V30 36 H 10.7491 1.24707 0.118934 0
M  V30 37 H 10.3416 -0.485724 -0.0735209 0
M  V30 38 H 6.25008 2.71685 -1.25102 0
M  V30 39 H 8.69099 2.21552 -1.44533 0
M  V30 40 H 4.29558 2.6031 0.616822 0
M  V30 41 H 3.32198 1.98022 -1.45916 0
M  V30 42 H 5.00756 1.30222 -1.87003 0
M  V30 43 H 4.41882 -0.829094 -0.993053 0
M  V30 44 H 2.86936 -1.20559 -2.47588 0
M  V30 45 H 2.2814 1.06147 0.179943 0
M  V30 46 H 2.64642 -1.93605 0.830861 0
M  V30 47 H 1.55454 -0.805443 1.71785 0
M  V30 48 H -0.680434 0.20904 2.11071 0
M  V30 49 H -2.45248 -2.31486 1.12234 0
M  V30 50 H -2.57922 0.436401 0.320378 0
M  V30 51 H -3.31259 -0.3362 1.74903 0
M  V30 52 H -4.253 -0.236184 -1.20235 0
M  V30 53 H -3.76892 -1.94498 -1.61788 0
M  V30 54 H -3.81137 -4.08393 0.607873 0
M  V30 55 H -5.00642 -4.12397 -0.721736 0
M  V30 56 H -2.97702 -3.97511 -2.15702 0
M  V30 57 H -5.14124 2.17837 -0.982811 0
M  V30 58 H -7.40522 3.21721 -0.65757 0
M  V30 59 H -9.7782 2.87814 0.0673149 0
M  V30 60 H -10.0385 1.75304 1.48032 0
M  V30 END ATOM
M  V30 BEGIN BOND
M  V30 1 1 1 2
M  V30 2 2 2 3
M  V30 3 1 3 4
M  V30 4 2 4 5
M  V30 5 1 4 6
M  V30 6 1 6 7
M  V30 7 2 7 8
M  V30 8 1 6 9
M  V30 9 1 9 10
M  V30 10 1 10 11
M  V30 11 1 11 12
M  V30 12 1 11 13
M  V30 13 1 13 14
M  V30 14 1 14 15
M  V30 15 1 15 16
M  V30 16 1 16 17
M  V30 17 2 16 18
M  V30 18 1 16 19
M  V30 19 1 19 20
M  V30 20 1 20 21
M  V30 21 1 21 22
M  V30 22 1 22 23
M  V30 23 1 23 24
M  V30 24 1 24 25
M  V30 25 1 25 26
M  V30 26 1 22 27
M  V30 27 1 27 28
M  V30 28 2 28 29
M  V30 29 1 29 30
M  V30 30 1 30 31
M  V30 31 2 30 32
M  V30 32 1 32 33
M  V30 33 2 33 34
M  V30 34 1 13 35
M  V30 35 1 8 2
M  V30 36 1 35 9
M  V30 37 1 24 20
M  V30 38 1 33 27
M  V30 39 1 1 36
M  V30 40 1 1 37
M  V30 41 1 7 38
M  V30 42 1 8 39
M  V30 43 1 9 40 CFG=1
M  V30 44 1 10 41
M  V30 45 1 10 42
M  V30 46 1 11 43 CFG=1
M  V30 47 1 12 44
M  V30 48 1 13 45 CFG=3
M  V30 49 1 14 46
M  V30 50 1 14 47
M  V30 51 1 17 48
M  V30 52 1 20 49 CFG=1
M  V30 53 1 21 50
M  V30 54 1 21 51
M  V30 55 1 22 52 CFG=3
M  V30 56 1 24 53 CFG=3
M  V30 57 1 25 54
M  V30 58 1 25 55
M  V30 59 1 26 56
M  V30 60 1 28 57
M  V30 61 1 29 58
M  V30 62 1 31 59
M  V30 63 1 31 60
M  V30 END BOND
M  V30 END CTAB
M  END
