
     RDKit          3D

  0  0  0  0  0  0  0  0  0  0999 V3000
M  V30 BEGIN CTAB
M  V30 COUNTS 53 56 0 0 0
M  V30 BEGIN ATOM
M  V30 1 N 5.31971 2.12806 2.39606 0
M  V30 2 C 5.13498 0.738558 2.53109 0
M  V30 3 N 5.35422 0.162653 3.64326 0
M  V30 4 C 4.69051 -0.042262 1.39066 0
M  V30 5 C 4.43655 0.516757 0.164403 0
M  V30 6 C 4.01048 -0.190897 -0.95198 0
M  V30 7 C 3.83963 -1.57121 -0.772582 0
M  V30 8 C 4.08508 -2.16748 0.444609 0
M  V30 9 C 4.50656 -1.42341 1.52377 0
M  V30 10 N 3.7958 0.416611 -2.2055 0
M  V30 11 C 4.82837 0.736018 -3.06449 0
M  V30 12 N 4.33077 1.27411 -4.17027 0
M  V30 13 C 3.0138 1.32043 -4.07034 0
M  V30 14 C 2.68498 0.774268 -2.81945 0
M  V30 15 C 1.29868 0.70549 -2.38913 0
M  V30 16 O 0.389596 0.935359 -3.27775 0
M  V30 17 N 0.83142 0.419994 -1.11693 0
M  V30 18 C -0.566158 0.358194 -0.808756 0
M  V30 19 C -0.973779 0.763838 0.482344 0
M  V30 20 C -2.29134 0.70201 0.863848 0
M  V30 21 C -3.25862 0.243041 0.00181336 0
M  V30 22 C -2.88288 -0.148317 -1.23787 0
M  V30 23 C -1.54803 -0.0891425 -1.63088 0
M  V30 24 C -4.63894 0.233947 0.442073 0
M  V30 25 C -5.3 1.46103 0.612865 0
M  V30 26 C -6.60573 1.53589 0.998337 0
M  V30 27 C -7.28229 0.35881 1.22295 0
M  V30 28 C -6.63606 -0.843552 1.05655 0
M  V30 29 C -5.29624 -0.94265 0.662063 0
M  V30 30 S -4.57536 -2.50722 0.514476 0
M  V30 31 N -3.18527 -2.58544 1.57706 0
M  V30 32 O -5.5415 -3.54026 1.11498 0
M  V30 33 O -4.26408 -2.95197 -0.857005 0
M  V30 34 H 4.66095 2.80894 2.83166 0
M  V30 35 H 6.11807 2.53358 1.85812 0
M  V30 36 H 5.67024 0.713382 4.4567 0
M  V30 37 H 4.57875 1.58954 0.0586104 0
M  V30 38 H 3.5104 -2.19932 -1.58878 0
M  V30 39 H 3.94351 -3.25099 0.558732 0
M  V30 40 H 4.71074 -1.85345 2.49848 0
M  V30 41 H 5.87585 0.576316 -2.8736 0
M  V30 42 H 2.37297 1.71484 -4.8378 0
M  V30 43 H 1.47193 0.248246 -0.321103 0
M  V30 44 H -0.203585 1.12253 1.1501 0
M  V30 45 H -2.55753 1.02956 1.88001 0
M  V30 46 H -3.60172 -0.506098 -1.99681 0
M  V30 47 H -1.28246 -0.440462 -2.63562 0
M  V30 48 H -4.73488 2.36685 0.426798 0
M  V30 49 H -7.09248 2.49978 1.12287 0
M  V30 50 H -8.33516 0.368113 1.53439 0
M  V30 51 H -7.16639 -1.76878 1.23216 0
M  V30 52 H -3.31105 -1.89056 2.33015 0
M  V30 53 H -2.33302 -2.44327 0.992198 0
M  V30 END ATOM
M  V30 BEGIN BOND
M  V30 1 1 1 2
M  V30 2 2 2 3 CFG=2
M  V30 3 1 2 4
M  V30 4 2 4 5
M  V30 5 1 5 6
M  V30 6 2 6 7
M  V30 7 1 7 8
M  V30 8 2 8 9
M  V30 9 1 6 10
M  V30 10 1 10 11
M  V30 11 2 11 12
M  V30 12 1 12 13
M  V30 13 2 13 14
M  V30 14 1 14 15
M  V30 15 2 15 16
M  V30 16 1 15 17
M  V30 17 1 17 18
M  V30 18 2 18 19
M  V30 19 1 19 20
M  V30 20 2 20 21
M  V30 21 1 21 22
M  V30 22 2 22 23
M  V30 23 1 21 24
M  V30 24 2 24 25
M  V30 25 1 25 26
M  V30 26 2 26 27
M  V30 27 1 27 28
M  V30 28 2 28 29
M  V30 29 1 29 30
M  V30 30 1 30 31
M  V30 31 2 30 32
M  V30 32 2 30 33
M  V30 33 1 9 4
M  V30 34 1 14 10
M  V30 35 1 23 18
M  V30 36 1 29 24
M  V30 37 1 1 34
M  V30 38 1 1 35
M  V30 39 1 3 36
M  V30 40 1 5 37
M  V30 41 1 7 38
M  V30 42 1 8 39
M  V30 43 1 9 40
M  V30 44 1 11 41
M  V30 45 1 13 42
M  V30 46 1 17 43
M  V30 47 1 19 44
M  V30 48 1 20 45
M  V30 49 1 22 46
M  V30 50 1 23 47
M  V30 51 1 25 48
M  V30 52 1 26 49
M  V30 53 1 27 50
M  V30 54 1 28 51
M  V30 55 1 31 52
M  V30 56 1 31 53
M  V30 END BOND
M  V30 END CTAB
M  END
