
     RDKit          3D

  0  0  0  0  0  0  0  0  0  0999 V3000
M  V30 BEGIN CTAB
M  V30 COUNTS 20 19 0 0 0
M  V30 BEGIN ATOM
M  V30 1 Cl 4.29601 0.109306 -1.76376 0
M  V30 2 C 3.31298 -0.188472 -0.342749 0
M  V30 3 C 3.6473 -1.15249 0.474013 0
M  V30 4 C 2.14407 0.675389 -0.090204 0
M  V30 5 S 0.86533 0.628337 -1.36234 0
M  V30 6 C -0.719153 0.396829 -0.563857 0
M  V30 7 N -1.79474 0.408842 -1.30345 0
M  V30 8 C -3.03188 0.231584 -0.613477 0
M  V30 9 N -3.73439 1.28235 -0.292318 0
M  V30 10 N -3.47494 -1.06839 -0.299846 0
M  V30 11 N -0.797977 0.226392 0.838609 0
M  V30 12 H 3.04578 -1.34089 1.35459 0
M  V30 13 H 4.51183 -1.7582 0.296449 0
M  V30 14 H 1.68789 0.360759 0.914425 0
M  V30 15 H 2.39153 1.74391 0.0854964 0
M  V30 16 H -3.39941 2.23911 -0.537857 0
M  V30 17 H -4.04134 -1.60123 -1.01816 0
M  V30 18 H -3.2527 -1.5034 0.61945 0
M  V30 19 H -0.568465 0.998802 1.48582 0
M  V30 20 H -1.08771 -0.688533 1.22909 0
M  V30 END ATOM
M  V30 BEGIN BOND
M  V30 1 1 1 2
M  V30 2 2 2 3 CFG=2
M  V30 3 1 2 4
M  V30 4 1 4 5
M  V30 5 1 5 6
M  V30 6 2 6 7 CFG=2
M  V30 7 1 7 8
M  V30 8 2 8 9 CFG=2
M  V30 9 1 8 10
M  V30 10 1 6 11
M  V30 11 1 3 12
M  V30 12 1 3 13
M  V30 13 1 4 14
M  V30 14 1 4 15
M  V30 15 1 9 16
M  V30 16 1 10 17
M  V30 17 1 10 18
M  V30 18 1 11 19
M  V30 19 1 11 20
M  V30 END BOND
M  V30 END CTAB
M  END
