
     RDKit          3D

  0  0  0  0  0  0  0  0  0  0999 V3000
M  V30 BEGIN CTAB
M  V30 COUNTS 23 23 0 0 0
M  V30 BEGIN ATOM
M  V30 1 C -3.82616 0.953196 0.118031 0
M  V30 2 C -3.07665 -0.265146 -0.337168 0
M  V30 3 C -1.63947 -0.0794634 -0.0484293 0
M  V30 4 O -1.26697 0.985676 0.494744 0
M  V30 5 O -0.685488 -1.04562 -0.358436 0
M  V30 6 C 0.656208 -0.765692 -0.0398141 0
M  V30 7 C 1.2167 -1.09562 1.16407 0
M  V30 8 N 2.50967 -0.786529 1.37688 0
M  V30 9 C 3.25857 -0.166831 0.444238 0
M  V30 10 N 4.62236 0.141734 0.710525 0
M  V30 11 N 2.68569 0.147495 -0.731386 0
M  V30 12 C 1.39801 -0.125856 -1.02595 0
M  V30 13 N 0.804979 0.209267 -2.26634 0
M  V30 14 H -4.89695 0.738311 0.327341 0
M  V30 15 H -3.8028 1.74727 -0.683569 0
M  V30 16 H -3.32512 1.41296 0.99629 0
M  V30 17 H -3.40774 -1.13354 0.305325 0
M  V30 18 H -3.25711 -0.506661 -1.40545 0
M  V30 19 H 0.594927 -1.59235 1.89581 0
M  V30 20 H 5.28346 0.272571 -0.0971652 0
M  V30 21 H 4.99842 0.244531 1.66878 0
M  V30 22 H 0.524816 -0.499187 -2.97757 0
M  V30 23 H 0.630671 1.20949 -2.50061 0
M  V30 END ATOM
M  V30 BEGIN BOND
M  V30 1 1 1 2
M  V30 2 1 2 3
M  V30 3 2 3 4
M  V30 4 1 3 5
M  V30 5 1 5 6
M  V30 6 2 6 7
M  V30 7 1 7 8
M  V30 8 2 8 9
M  V30 9 1 9 10
M  V30 10 1 9 11
M  V30 11 2 11 12
M  V30 12 1 12 13
M  V30 13 1 12 6
M  V30 14 1 1 14
M  V30 15 1 1 15
M  V30 16 1 1 16
M  V30 17 1 2 17
M  V30 18 1 2 18
M  V30 19 1 7 19
M  V30 20 1 10 20
M  V30 21 1 10 21
M  V30 22 1 13 22
M  V30 23 1 13 23
M  V30 END BOND
M  V30 END CTAB
M  END
