
     RDKit          3D

  0  0  0  0  0  0  0  0  0  0999 V3000
M  V30 BEGIN CTAB
M  V30 COUNTS 25 25 0 0 0
M  V30 BEGIN ATOM
M  V30 1 C -2.88907 1.32749 0.194696 0
M  V30 2 C -2.17365 -0.00983908 0.192198 0
M  V30 3 O -0.962042 0.155738 -0.521124 0
M  V30 4 C 0.223516 -0.0553352 0.169348 0
M  V30 5 N 0.271369 -0.403856 1.46266 0
M  V30 6 C 1.43672 -0.599843 2.09865 0
M  V30 7 C 2.62407 -0.442171 1.4166 0
M  V30 8 C 2.62714 -0.08541 0.0885188 0
M  V30 9 C 1.416 0.107025 -0.530583 0
M  V30 10 N 1.37082 0.473796 -1.89212 0
M  V30 11 N 3.83482 0.0856141 -0.644744 0
M  V30 12 C -3.0329 -1.0766 -0.452255 0
M  V30 13 H -3.87325 1.14592 0.712175 0
M  V30 14 H -3.05833 1.64769 -0.854785 0
M  V30 15 H -2.33079 2.05155 0.791846 0
M  V30 16 H -1.99421 -0.301168 1.26188 0
M  V30 17 H 1.41769 -0.885166 3.16211 0
M  V30 18 H 3.57675 -0.594031 1.90538 0
M  V30 19 H 0.484173 0.743233 -2.37251 0
M  V30 20 H 2.23832 0.487525 -2.47254 0
M  V30 21 H 4.35496 -0.769108 -0.904938 0
M  V30 22 H 4.20617 1.01532 -0.922743 0
M  V30 23 H -3.89019 -0.561006 -0.939713 0
M  V30 24 H -3.37453 -1.83473 0.297371 0
M  V30 25 H -2.50355 -1.62264 -1.24538 0
M  V30 END ATOM
M  V30 BEGIN BOND
M  V30 1 1 1 2
M  V30 2 1 2 3
M  V30 3 1 3 4
M  V30 4 2 4 5
M  V30 5 1 5 6
M  V30 6 2 6 7
M  V30 7 1 7 8
M  V30 8 2 8 9
M  V30 9 1 9 10
M  V30 10 1 8 11
M  V30 11 1 2 12
M  V30 12 1 9 4
M  V30 13 1 1 13
M  V30 14 1 1 14
M  V30 15 1 1 15
M  V30 16 1 2 16
M  V30 17 1 6 17
M  V30 18 1 7 18
M  V30 19 1 10 19
M  V30 20 1 10 20
M  V30 21 1 11 21
M  V30 22 1 11 22
M  V30 23 1 12 23
M  V30 24 1 12 24
M  V30 25 1 12 25
M  V30 END BOND
M  V30 END CTAB
M  END
