
     RDKit          3D

  0  0  0  0  0  0  0  0  0  0999 V3000
M  V30 BEGIN CTAB
M  V30 COUNTS 17 17 0 0 0
M  V30 BEGIN ATOM
M  V30 1 C -0.393524 2.50989 -0.328648 0
M  V30 2 C -0.287542 1.03544 -0.142532 0
M  V30 3 N -1.35601 0.22508 -0.135155 0
M  V30 4 C -1.257 -1.10296 0.0327802 0
M  V30 5 N -2.4209 -1.9509 0.0366492 0
M  V30 6 N -0.0330785 -1.63641 0.19999 0
M  V30 7 C 1.06394 -0.854625 0.198456 0
M  V30 8 N 2.37878 -1.3948 0.374149 0
M  V30 9 C 0.979446 0.5137 0.0269009 0
M  V30 10 I 2.70559 1.73341 0.0257369 0
M  V30 11 H -1.44697 2.74909 -0.493162 0
M  V30 12 H -0.0572297 3.0646 0.569135 0
M  V30 13 H 0.154069 2.82754 -1.24953 0
M  V30 14 H -3.22919 -1.76837 0.643971 0
M  V30 15 H -2.44676 -2.77967 -0.598111 0
M  V30 16 H 2.92281 -1.157 1.23184 0
M  V30 17 H 2.72357 -2.01403 -0.392475 0
M  V30 END ATOM
M  V30 BEGIN BOND
M  V30 1 1 1 2
M  V30 2 2 2 3
M  V30 3 1 3 4
M  V30 4 1 4 5
M  V30 5 2 4 6
M  V30 6 1 6 7
M  V30 7 1 7 8
M  V30 8 2 7 9
M  V30 9 1 9 10
M  V30 10 1 9 2
M  V30 11 1 1 11
M  V30 12 1 1 12
M  V30 13 1 1 13
M  V30 14 1 5 14
M  V30 15 1 5 15
M  V30 16 1 8 16
M  V30 17 1 8 17
M  V30 END BOND
M  V30 END CTAB
M  END
