
     RDKit          3D

  0  0  0  0  0  0  0  0  0  0999 V3000
M  V30 BEGIN CTAB
M  V30 COUNTS 29 29 0 0 0
M  V30 BEGIN ATOM
M  V30 1 C 3.98444 0.454211 1.53122 0
M  V30 2 C 3.417 0.123317 0.179345 0
M  V30 3 C 2.03646 0.714846 -0.0197522 0
M  V30 4 C 1.57768 0.318459 -1.39779 0
M  V30 5 N 0.27007 0.809851 -1.74896 0
M  V30 6 C -0.8892 0.372211 -1.09183 0
M  V30 7 C -2.11127 0.928532 -1.49109 0
M  V30 8 C -3.2694 0.517451 -0.880263 0
M  V30 9 C -3.24208 -0.436809 0.121595 0
M  V30 10 C -1.99354 -0.93923 0.459982 0
M  V30 11 N -0.848681 -0.555421 -0.120066 0
M  V30 12 N -1.96351 -1.93461 1.50479 0
M  V30 13 N -4.41726 -0.884322 0.773465 0
M  V30 14 H 4.73664 -0.354449 1.76368 0
M  V30 15 H 4.56702 1.40533 1.5396 0
M  V30 16 H 3.23302 0.424342 2.33601 0
M  V30 17 H 4.06368 0.53551 -0.600255 0
M  V30 18 H 3.34172 -0.965274 0.0930459 0
M  V30 19 H 2.06786 1.83298 -0.00689346 0
M  V30 20 H 1.33255 0.370767 0.749695 0
M  V30 21 H 1.59449 -0.814342 -1.39607 0
M  V30 22 H 2.3522 0.651889 -2.14813 0
M  V30 23 H 0.186784 1.51802 -2.52213 0
M  V30 24 H -2.14229 1.6729 -2.2711 0
M  V30 25 H -4.2496 0.915193 -1.14936 0
M  V30 26 H -2.43862 -1.75816 2.42634 0
M  V30 27 H -1.47232 -2.81922 1.339 0
M  V30 28 H -4.42253 -1.12085 1.78238 0
M  V30 29 H -5.30132 -0.983117 0.243519 0
M  V30 END ATOM
M  V30 BEGIN BOND
M  V30 1 1 1 2
M  V30 2 1 2 3
M  V30 3 1 3 4
M  V30 4 1 4 5
M  V30 5 1 5 6
M  V30 6 2 6 7
M  V30 7 1 7 8
M  V30 8 2 8 9
M  V30 9 1 9 10
M  V30 10 2 10 11
M  V30 11 1 10 12
M  V30 12 1 9 13
M  V30 13 1 11 6
M  V30 14 1 1 14
M  V30 15 1 1 15
M  V30 16 1 1 16
M  V30 17 1 2 17
M  V30 18 1 2 18
M  V30 19 1 3 19
M  V30 20 1 3 20
M  V30 21 1 4 21
M  V30 22 1 4 22
M  V30 23 1 5 23
M  V30 24 1 7 24
M  V30 25 1 8 25
M  V30 26 1 12 26
M  V30 27 1 12 27
M  V30 28 1 13 28
M  V30 29 1 13 29
M  V30 END BOND
M  V30 END CTAB
M  END
