
     RDKit          3D

  0  0  0  0  0  0  0  0  0  0999 V3000
M  V30 BEGIN CTAB
M  V30 COUNTS 28 29 0 0 0
M  V30 BEGIN ATOM
M  V30 1 N 4.55219 0.222471 0.51986 0
M  V30 2 C 3.13012 0.135727 0.367782 0
M  V30 3 C 2.57035 -0.24361 -0.825045 0
M  V30 4 C 1.18684 -0.328265 -0.99732 0
M  V30 5 N 0.642785 -0.74307 -2.24788 0
M  V30 6 C 0.389616 -0.0156732 0.074927 0
M  V30 7 C 0.952805 0.375775 1.31284 0
M  V30 8 C 2.28775 0.44156 1.42869 0
M  V30 9 N -1.01867 -0.0483046 -0.0132809 0
M  V30 10 C -1.75356 -1.06283 0.714101 0
M  V30 11 C -3.23073 -0.796169 0.551863 0
M  V30 12 O -3.61112 0.508606 0.730064 0
M  V30 13 C -3.08372 1.39423 -0.178268 0
M  V30 14 C -1.80023 0.878032 -0.758662 0
M  V30 15 O -1.44029 1.26352 -1.8718 0
M  V30 16 H 5.16952 0.308256 -0.307069 0
M  V30 17 H 4.98082 0.19624 1.45829 0
M  V30 18 H 3.18711 -0.48831 -1.67202 0
M  V30 19 H -0.00440905 -1.54632 -2.26367 0
M  V30 20 H 0.882157 -0.257342 -3.12678 0
M  V30 21 H 0.258312 0.614036 2.1353 0
M  V30 22 H 2.70262 0.743943 2.38171 0
M  V30 23 H -1.54942 -2.08917 0.412162 0
M  V30 24 H -1.53621 -0.86873 1.81034 0
M  V30 25 H -3.57048 -1.23963 -0.40334 0
M  V30 26 H -3.73292 -1.39611 1.36846 0
M  V30 27 H -3.74923 1.71403 -0.992906 0
M  V30 28 H -2.81201 2.32712 0.391634 0
M  V30 END ATOM
M  V30 BEGIN BOND
M  V30 1 1 1 2
M  V30 2 2 2 3
M  V30 3 1 3 4
M  V30 4 1 4 5
M  V30 5 2 4 6
M  V30 6 1 6 7
M  V30 7 2 7 8
M  V30 8 1 6 9
M  V30 9 1 9 10
M  V30 10 1 10 11
M  V30 11 1 11 12
M  V30 12 1 12 13
M  V30 13 1 13 14
M  V30 14 2 14 15
M  V30 15 1 8 2
M  V30 16 1 14 9
M  V30 17 1 1 16
M  V30 18 1 1 17
M  V30 19 1 3 18
M  V30 20 1 5 19
M  V30 21 1 5 20
M  V30 22 1 7 21
M  V30 23 1 8 22
M  V30 24 1 10 23
M  V30 25 1 10 24
M  V30 26 1 11 25
M  V30 27 1 11 26
M  V30 28 1 13 27
M  V30 29 1 13 28
M  V30 END BOND
M  V30 END CTAB
M  END
