
     RDKit          3D

  0  0  0  0  0  0  0  0  0  0999 V3000
M  V30 BEGIN CTAB
M  V30 COUNTS 14 14 0 0 0
M  V30 BEGIN ATOM
M  V30 1 N -2.34336 -0.698717 -0.261202 0
M  V30 2 C -1.04756 -0.110598 -0.195566 0
M  V30 3 N 0.0382771 -0.92262 -0.0885287 0
M  V30 4 C 1.28379 -0.434956 -0.0223497 0
M  V30 5 N 2.38146 -1.32901 0.0887736 0
M  V30 6 N 1.42687 0.89841 -0.0656901 0
M  V30 7 C 0.372308 1.73468 -0.171545 0
M  V30 8 O 0.491914 2.98594 -0.213225 0
M  V30 9 N -0.872998 1.22831 -0.236965 0
M  V30 10 H -2.54649 -1.29472 -1.09644 0
M  V30 11 H -3.05682 -0.557726 0.46374 0
M  V30 12 H 2.29621 -2.26617 0.529425 0
M  V30 13 H 3.30906 -1.04486 -0.28137 0
M  V30 14 H -1.73267 1.81204 -0.319345 0
M  V30 END ATOM
M  V30 BEGIN BOND
M  V30 1 1 1 2
M  V30 2 2 2 3
M  V30 3 1 3 4
M  V30 4 1 4 5
M  V30 5 2 4 6
M  V30 6 1 6 7
M  V30 7 2 7 8
M  V30 8 1 7 9
M  V30 9 1 9 2
M  V30 10 1 1 10
M  V30 11 1 1 11
M  V30 12 1 5 12
M  V30 13 1 5 13
M  V30 14 1 9 14
M  V30 END BOND
M  V30 END CTAB
M  END
