
     RDKit          3D

  0  0  0  0  0  0  0  0  0  0999 V3000
M  V30 BEGIN CTAB
M  V30 COUNTS 31 31 0 0 0
M  V30 BEGIN ATOM
M  V30 1 N -3.35091 1.49416 0.309647 0
M  V30 2 C -1.93916 1.72747 0.384597 0
M  V30 3 C -1.14876 0.689048 -0.425317 0
M  V30 4 C 0.284581 1.0631 -0.476439 0
M  V30 5 N 1.12144 0.394514 0.454745 0
M  V30 6 C 0.749239 -0.922262 0.81328 0
M  V30 7 C -0.438317 -1.46432 0.0639557 0
M  V30 8 O -1.43916 -0.53347 0.101028 0
M  V30 9 C -0.0908392 -1.94277 -1.31634 0
M  V30 10 C -0.926628 -2.69181 0.841926 0
M  V30 11 S 2.77537 0.639085 0.179416 0
M  V30 12 O 3.23738 0.0788935 -1.15522 0
M  V30 13 O 3.54206 -0.139874 1.23955 0
M  V30 14 N 3.26477 2.27242 0.297417 0
M  V30 15 H -3.86916 2.37566 0.516997 0
M  V30 16 H -3.59715 1.22171 -0.656199 0
M  V30 17 H -1.54572 1.79069 1.41597 0
M  V30 18 H -1.71399 2.70169 -0.10423 0
M  V30 19 H -1.6002 0.733203 -1.45187 0
M  V30 20 H 0.657155 0.982986 -1.53948 0
M  V30 21 H 0.352414 2.16955 -0.254484 0
M  V30 22 H 1.55434 -1.6775 0.756994 0
M  V30 23 H 0.444854 -0.900302 1.90147 0
M  V30 24 H 0.763336 -1.40454 -1.76345 0
M  V30 25 H -0.999598 -1.90428 -1.94265 0
M  V30 26 H 0.222597 -3.01669 -1.26289 0
M  V30 27 H -0.938524 -2.4972 1.93304 0
M  V30 28 H -0.336434 -3.59185 0.588939 0
M  V30 29 H -1.97954 -2.91703 0.499949 0
M  V30 30 H 2.69806 2.91456 -0.297805 0
M  V30 31 H 4.2465 2.35517 -0.0439423 0
M  V30 END ATOM
M  V30 BEGIN BOND
M  V30 1 1 1 2
M  V30 2 1 2 3
M  V30 3 1 3 4
M  V30 4 1 4 5
M  V30 5 1 5 6
M  V30 6 1 6 7
M  V30 7 1 7 8
M  V30 8 1 7 9
M  V30 9 1 7 10
M  V30 10 1 5 11
M  V30 11 2 11 12
M  V30 12 2 11 13
M  V30 13 1 11 14
M  V30 14 1 8 3
M  V30 15 1 1 15
M  V30 16 1 1 16
M  V30 17 1 2 17
M  V30 18 1 2 18
M  V30 19 1 3 19
M  V30 20 1 4 20
M  V30 21 1 4 21
M  V30 22 1 6 22
M  V30 23 1 6 23
M  V30 24 1 9 24
M  V30 25 1 9 25
M  V30 26 1 9 26
M  V30 27 1 10 27
M  V30 28 1 10 28
M  V30 29 1 10 29
M  V30 30 1 14 30
M  V30 31 1 14 31
M  V30 END BOND
M  V30 END CTAB
M  END
