
     RDKit          3D

  0  0  0  0  0  0  0  0  0  0999 V3000
M  V30 BEGIN CTAB
M  V30 COUNTS 52 55 0 0 0
M  V30 BEGIN ATOM
M  V30 1 N -4.6734 0.415709 -3.21361 0
M  V30 2 C -3.53158 0.61113 -3.15055 0
M  V30 3 C -2.10185 0.866599 -3.04759 0
M  V30 4 C -1.49865 1.43589 -4.13462 0
M  V30 5 N -2.26646 1.74653 -5.28211 0
M  V30 6 N -0.1875 1.66326 -4.0246 0
M  V30 7 C 0.498521 1.33992 -2.885 0
M  V30 8 C -0.0612327 0.770303 -1.77594 0
M  V30 9 C -1.44468 0.527612 -1.88417 0
M  V30 10 C -2.23854 -0.0659408 -0.822167 0
M  V30 11 C -2.50665 -1.41514 -0.807217 0
M  V30 12 C -3.29491 -1.96371 0.216328 0
M  V30 13 C -3.80094 -1.15029 1.20702 0
M  V30 14 C -3.52421 0.205423 1.18079 0
M  V30 15 C -2.73939 0.755236 0.162994 0
M  V30 16 C -4.64449 -1.69093 2.31597 0
M  V30 17 C -3.82824 -2.62409 3.20162 0
M  V30 18 C -5.83974 -2.45915 1.81748 0
M  V30 19 C 0.750721 0.511782 -0.736237 0
M  V30 20 N 0.324329 -0.0945239 0.521474 0
M  V30 21 C 2.06618 0.839985 -0.874484 0
M  V30 22 S 2.14024 1.49966 -2.44671 0
M  V30 23 C 3.18998 0.671673 0.0886151 0
M  V30 24 O 2.90293 0.157314 1.1693 0
M  V30 25 N 4.47574 1.09085 -0.265977 0
M  V30 26 C 5.63495 0.999166 0.514011 0
M  V30 27 C 5.77241 0.25285 1.6578 0
M  V30 28 C 6.96555 0.234858 2.38373 0
M  V30 29 C 8.0208 0.975379 1.94745 0
M  V30 30 C 7.91796 1.73741 0.800714 0
M  V30 31 C 6.7518 1.75174 0.095937 0
M  V30 32 Cl 9.33225 2.66332 0.309706 0
M  V30 33 Cl 9.50709 0.941929 2.86684 0
M  V30 34 H -3.30113 1.95356 -5.19972 0
M  V30 35 H -1.88568 1.79194 -6.25166 0
M  V30 36 H -2.10387 -2.04175 -1.59011 0
M  V30 37 H -3.52065 -3.00516 0.255467 0
M  V30 38 H -3.90607 0.868657 1.9425 0
M  V30 39 H -2.537 1.81705 0.163181 0
M  V30 40 H -4.96957 -0.862263 2.98436 0
M  V30 41 H -4.46978 -2.8348 4.08584 0
M  V30 42 H -3.6153 -3.54634 2.62331 0
M  V30 43 H -2.91281 -2.06997 3.48761 0
M  V30 44 H -6.68965 -2.24901 2.5229 0
M  V30 45 H -5.63496 -3.53891 1.90311 0
M  V30 46 H -6.14313 -2.16594 0.787236 0
M  V30 47 H 0.153213 0.600652 1.29215 0
M  V30 48 H 0.208094 -1.10006 0.651796 0
M  V30 49 H 4.56895 1.52528 -1.24471 0
M  V30 50 H 4.95453 -0.341902 2.00568 0
M  V30 51 H 7.02702 -0.358584 3.26528 0
M  V30 52 H 6.7088 2.3558 -0.790994 0
M  V30 END ATOM
M  V30 BEGIN BOND
M  V30 1 3 1 2
M  V30 2 1 2 3
M  V30 3 2 3 4
M  V30 4 1 4 5
M  V30 5 1 4 6
M  V30 6 2 6 7
M  V30 7 1 7 8
M  V30 8 2 8 9
M  V30 9 1 9 10
M  V30 10 2 10 11
M  V30 11 1 11 12
M  V30 12 2 12 13
M  V30 13 1 13 14
M  V30 14 2 14 15
M  V30 15 1 13 16
M  V30 16 1 16 17
M  V30 17 1 16 18
M  V30 18 1 8 19
M  V30 19 1 19 20
M  V30 20 2 19 21
M  V30 21 1 21 22
M  V30 22 1 21 23
M  V30 23 2 23 24
M  V30 24 1 23 25
M  V30 25 1 25 26
M  V30 26 2 26 27
M  V30 27 1 27 28
M  V30 28 2 28 29
M  V30 29 1 29 30
M  V30 30 2 30 31
M  V30 31 1 30 32
M  V30 32 1 29 33
M  V30 33 1 9 3
M  V30 34 1 15 10
M  V30 35 1 31 26
M  V30 36 1 22 7
M  V30 37 1 5 34
M  V30 38 1 5 35
M  V30 39 1 11 36
M  V30 40 1 12 37
M  V30 41 1 14 38
M  V30 42 1 15 39
M  V30 43 1 16 40
M  V30 44 1 17 41
M  V30 45 1 17 42
M  V30 46 1 17 43
M  V30 47 1 18 44
M  V30 48 1 18 45
M  V30 49 1 18 46
M  V30 50 1 20 47
M  V30 51 1 20 48
M  V30 52 1 25 49
M  V30 53 1 27 50
M  V30 54 1 28 51
M  V30 55 1 31 52
M  V30 END BOND
M  V30 END CTAB
M  END
