
     RDKit          3D

  0  0  0  0  0  0  0  0  0  0999 V3000
M  V30 BEGIN CTAB
M  V30 COUNTS 24 24 0 0 0
M  V30 BEGIN ATOM
M  V30 1 N 2.85539 0.943021 0.872932 0
M  V30 2 C 2.43601 0.343524 -0.375754 0
M  V30 3 C 1.79213 -0.976211 -0.220885 0
M  V30 4 N 0.57762 -1.08655 0.504047 0
M  V30 5 C -0.699933 -0.600165 0.112317 0
M  V30 6 C -1.24938 0.583092 0.521346 0
M  V30 7 N -0.620817 1.46395 1.43752 0
M  V30 8 C -2.50626 1.01688 0.0795638 0
M  V30 9 C -3.20516 0.212346 -0.798772 0
M  V30 10 C -2.65764 -0.985956 -1.21698 0
M  V30 11 C -1.42488 -1.4066 -0.781242 0
M  V30 12 Br -0.749429 -3.07281 -1.41079 0
M  V30 13 F -3.39324 -1.73691 -2.08296 0
M  V30 14 H 2.78596 1.98252 0.871734 0
M  V30 15 H 3.82291 0.657755 1.15645 0
M  V30 16 H 1.86762 1.06074 -1.00979 0
M  V30 17 H 3.39732 0.191054 -0.953229 0
M  V30 18 H 1.73433 -1.48955 -1.23266 0
M  V30 19 H 2.55099 -1.6376 0.308931 0
M  V30 20 H 0.545951 -1.5767 1.45793 0
M  V30 21 H -0.102634 2.28417 1.00852 0
M  V30 22 H -0.653053 1.33198 2.48354 0
M  V30 23 H -2.93054 1.95136 0.407177 0
M  V30 24 H -4.17327 0.546669 -1.13894 0
M  V30 END ATOM
M  V30 BEGIN BOND
M  V30 1 1 1 2
M  V30 2 1 2 3
M  V30 3 1 3 4
M  V30 4 1 4 5
M  V30 5 2 5 6
M  V30 6 1 6 7
M  V30 7 1 6 8
M  V30 8 2 8 9
M  V30 9 1 9 10
M  V30 10 2 10 11
M  V30 11 1 11 12
M  V30 12 1 10 13
M  V30 13 1 11 5
M  V30 14 1 1 14
M  V30 15 1 1 15
M  V30 16 1 2 16
M  V30 17 1 2 17
M  V30 18 1 3 18
M  V30 19 1 3 19
M  V30 20 1 4 20
M  V30 21 1 7 21
M  V30 22 1 7 22
M  V30 23 1 8 23
M  V30 24 1 9 24
M  V30 END BOND
M  V30 END CTAB
M  END
