
     RDKit          3D

  0  0  0  0  0  0  0  0  0  0999 V3000
M  V30 BEGIN CTAB
M  V30 COUNTS 30 31 0 0 0
M  V30 BEGIN ATOM
M  V30 1 C -3.2432 1.46338 1.03443 0
M  V30 2 C -2.40833 0.319326 0.539215 0 CFG=1
M  V30 3 N -2.85337 -0.135014 -0.784872 0
M  V30 4 C -2.14662 -1.37815 -1.02786 0
M  V30 5 C -0.662284 -1.18136 -1.15069 0
M  V30 6 C -0.0910869 -0.424931 0.0217016 0 CFG=2
M  V30 7 C -0.976539 0.750125 0.374835 0
M  V30 8 C 1.25962 0.0800695 -0.257354 0
M  V30 9 N 1.57511 0.929532 -1.24854 0
M  V30 10 N 2.8458 1.21089 -1.26577 0
M  V30 11 C 3.40772 0.529321 -0.253086 0
M  V30 12 N 2.42052 -0.174633 0.374734 0
M  V30 13 N 2.60102 -1.0049 1.47398 0
M  V30 14 N 4.78719 0.545222 0.0947021 0
M  V30 15 H -4.31915 1.3568 0.831603 0
M  V30 16 H -3.13179 1.50434 2.14119 0
M  V30 17 H -2.84373 2.42678 0.650497 0
M  V30 18 H -2.4624 -0.563446 1.21053 0
M  V30 19 H -2.66805 0.578162 -1.51829 0
M  V30 20 H -2.33028 -2.02582 -0.127179 0
M  V30 21 H -2.5092 -1.92685 -1.90234 0
M  V30 22 H -0.385362 -0.753648 -2.12703 0
M  V30 23 H -0.20292 -2.20705 -1.11768 0
M  V30 24 H -0.0979587 -1.11219 0.889673 0
M  V30 25 H -0.949114 1.43745 -0.517414 0
M  V30 26 H -0.577697 1.26057 1.26929 0
M  V30 27 H 2.8581 -0.6283 2.39941 0
M  V30 28 H 2.4745 -2.02158 1.35996 0
M  V30 29 H 5.27482 -0.255691 0.531596 0
M  V30 30 H 5.35471 1.40157 -0.0930188 0
M  V30 END ATOM
M  V30 BEGIN BOND
M  V30 1 1 1 2
M  V30 2 1 2 3
M  V30 3 1 3 4
M  V30 4 1 4 5
M  V30 5 1 5 6
M  V30 6 1 6 7
M  V30 7 1 6 8
M  V30 8 2 8 9
M  V30 9 1 9 10
M  V30 10 2 10 11
M  V30 11 1 11 12
M  V30 12 1 12 13
M  V30 13 1 11 14
M  V30 14 1 7 2
M  V30 15 1 12 8
M  V30 16 1 1 15
M  V30 17 1 1 16
M  V30 18 1 1 17
M  V30 19 1 2 18 CFG=1
M  V30 20 1 3 19
M  V30 21 1 4 20
M  V30 22 1 4 21
M  V30 23 1 5 22
M  V30 24 1 5 23
M  V30 25 1 6 24 CFG=1
M  V30 26 1 7 25
M  V30 27 1 7 26
M  V30 28 1 13 27
M  V30 29 1 13 28
M  V30 30 1 14 29
M  V30 31 1 14 30
M  V30 END BOND
M  V30 END CTAB
M  END
