
     RDKit          3D

  0  0  0  0  0  0  0  0  0  0999 V3000
M  V30 BEGIN CTAB
M  V30 COUNTS 25 24 0 0 0
M  V30 BEGIN ATOM
M  V30 1 C -0.875877 -1.51872 0.907954 0
M  V30 2 C -0.433717 -0.32351 0.15832 0
M  V30 3 C 0.942514 0.142752 0.208973 0
M  V30 4 N 1.77736 -0.519961 0.93245 0
M  V30 5 N 3.1084 -0.125528 1.02285 0
M  V30 6 C 3.9187 0.226902 -0.0770194 0
M  V30 7 N 4.11923 1.60804 -0.365259 0
M  V30 8 N 4.49521 -0.633731 -0.845778 0
M  V30 9 N -1.28117 0.330004 -0.562008 0
M  V30 10 N -2.59626 -0.139295 -0.593005 0
M  V30 11 C -3.58757 0.492156 0.203286 0
M  V30 12 N -4.93537 0.397828 -0.22269 0
M  V30 13 N -3.32319 1.14037 1.28384 0
M  V30 14 H -0.617692 -1.4455 1.98678 0
M  V30 15 H -1.96322 -1.64687 0.813096 0
M  V30 16 H -0.346616 -2.42974 0.521824 0
M  V30 17 H 1.27534 1.01295 -0.333703 0
M  V30 18 H 3.51902 -0.095916 1.9975 0
M  V30 19 H 3.42604 2.07296 -0.968722 0
M  V30 20 H 4.93057 2.11219 0.0209535 0
M  V30 21 H 4.40473 -1.66484 -0.710657 0
M  V30 22 H -2.80803 -0.939602 -1.20095 0
M  V30 23 H -5.66411 0.112726 0.461262 0
M  V30 24 H -5.16571 0.616234 -1.21145 0
M  V30 25 H -2.31858 1.21811 1.61311 0
M  V30 END ATOM
M  V30 BEGIN BOND
M  V30 1 1 1 2
M  V30 2 1 2 3
M  V30 3 2 3 4
M  V30 4 1 4 5
M  V30 5 1 5 6
M  V30 6 1 6 7
M  V30 7 2 6 8 CFG=2
M  V30 8 2 2 9
M  V30 9 1 9 10
M  V30 10 1 10 11
M  V30 11 1 11 12
M  V30 12 2 11 13 CFG=2
M  V30 13 1 1 14
M  V30 14 1 1 15
M  V30 15 1 1 16
M  V30 16 1 3 17
M  V30 17 1 5 18
M  V30 18 1 7 19
M  V30 19 1 7 20
M  V30 20 1 8 21
M  V30 21 1 10 22
M  V30 22 1 12 23
M  V30 23 1 12 24
M  V30 24 1 13 25
M  V30 END BOND
M  V30 END CTAB
M  END
