
     RDKit          3D

  0  0  0  0  0  0  0  0  0  0999 V3000
M  V30 BEGIN CTAB
M  V30 COUNTS 25 26 0 0 0
M  V30 BEGIN ATOM
M  V30 1 N 0.358953 -1.48655 -1.5793 0
M  V30 2 C 0.0110594 -0.470379 -0.653988 0
M  V30 3 C 1.00772 0.202568 0.00955532 0
M  V30 4 C 0.660613 1.1836 0.902437 0
M  V30 5 N -0.664126 1.45642 1.09995 0
M  V30 6 C -1.64475 0.802781 0.454924 0
M  V30 7 C -1.34717 -0.192277 -0.452977 0
M  V30 8 C -2.32045 -0.889539 -1.13806 0
M  V30 9 F -1.92852 -1.8494 -2.0095 0
M  V30 10 C -3.647 -0.588328 -0.914392 0
M  V30 11 C -3.94956 0.419922 0.00549943 0
M  V30 12 C -2.98113 1.11396 0.687404 0
M  V30 13 F -3.32909 2.09141 1.57693 0
M  V30 14 C 2.39667 -0.175667 -0.282785 0
M  V30 15 O 2.65672 -1.08829 -1.11598 0
M  V30 16 N 3.47146 0.475225 0.363559 0
M  V30 17 N 4.77393 0.0903261 0.0615041 0
M  V30 18 H 0.361223 -2.47223 -1.23977 0
M  V30 19 H 0.606374 -1.29958 -2.55847 0
M  V30 20 H 1.42697 1.7171 1.42752 0
M  V30 21 H -4.42137 -1.12594 -1.4436 0
M  V30 22 H -5.01683 0.612049 0.139022 0
M  V30 23 H 3.32532 1.22873 1.0543 0
M  V30 24 H 5.3832 0.886316 -0.216302 0
M  V30 25 H 4.80977 -0.642228 -0.675537 0
M  V30 END ATOM
M  V30 BEGIN BOND
M  V30 1 1 1 2
M  V30 2 2 2 3
M  V30 3 1 3 4
M  V30 4 2 4 5
M  V30 5 1 5 6
M  V30 6 2 6 7
M  V30 7 1 7 8
M  V30 8 1 8 9
M  V30 9 2 8 10
M  V30 10 1 10 11
M  V30 11 2 11 12
M  V30 12 1 12 13
M  V30 13 1 3 14
M  V30 14 2 14 15
M  V30 15 1 14 16
M  V30 16 1 16 17
M  V30 17 1 7 2
M  V30 18 1 12 6
M  V30 19 1 1 18
M  V30 20 1 1 19
M  V30 21 1 4 20
M  V30 22 1 10 21
M  V30 23 1 11 22
M  V30 24 1 16 23
M  V30 25 1 17 24
M  V30 26 1 17 25
M  V30 END BOND
M  V30 END CTAB
M  END
