
     RDKit          3D

  0  0  0  0  0  0  0  0  0  0999 V3000
M  V30 BEGIN CTAB
M  V30 COUNTS 27 26 0 0 0
M  V30 BEGIN ATOM
M  V30 1 C 2.1816 -1.26323 -1.20316 0
M  V30 2 N 1.54905 -0.725149 -0.0148726 0
M  V30 3 C 2.44029 0.136379 0.726262 0
M  V30 4 P 0.0121904 0.0191949 -0.352529 0
M  V30 5 S -0.147136 0.278632 -2.06772 0
M  V30 6 N -0.111943 1.61293 0.402302 0
M  V30 7 C -0.832358 2.52199 -0.497067 0
M  V30 8 N -0.908608 1.54004 1.56939 0
M  V30 9 N -1.31837 -0.918456 0.246898 0
M  V30 10 C -2.01682 -1.65401 -0.745114 0
M  V30 11 N -1.04915 -1.59666 1.41482 0
M  V30 12 H 3.27959 -1.03647 -1.18359 0
M  V30 13 H 1.8007 -0.826803 -2.13808 0
M  V30 14 H 2.12573 -2.38153 -1.19352 0
M  V30 15 H 3.33767 0.424828 0.138212 0
M  V30 16 H 1.94526 1.04704 1.08061 0
M  V30 17 H 2.80108 -0.420938 1.62438 0
M  V30 18 H -1.76735 2.07244 -0.87408 0
M  V30 19 H -0.172434 2.66976 -1.36553 0
M  V30 20 H -1.03466 3.42858 0.0868703 0
M  V30 21 H -1.92025 1.70912 1.35521 0
M  V30 22 H -0.543784 2.20825 2.2713 0
M  V30 23 H -1.51583 -1.72923 -1.71955 0
M  V30 24 H -2.27551 -2.68482 -0.429786 0
M  V30 25 H -2.98973 -1.12731 -0.940831 0
M  V30 26 H -1.09857 -0.976126 2.26783 0
M  V30 27 H -1.77065 -2.32844 1.54133 0
M  V30 END ATOM
M  V30 BEGIN BOND
M  V30 1 1 1 2
M  V30 2 1 2 3
M  V30 3 1 2 4
M  V30 4 2 4 5
M  V30 5 1 4 6
M  V30 6 1 6 7
M  V30 7 1 6 8
M  V30 8 1 4 9
M  V30 9 1 9 10
M  V30 10 1 9 11
M  V30 11 1 1 12
M  V30 12 1 1 13
M  V30 13 1 1 14
M  V30 14 1 3 15
M  V30 15 1 3 16
M  V30 16 1 3 17
M  V30 17 1 7 18
M  V30 18 1 7 19
M  V30 19 1 7 20
M  V30 20 1 8 21
M  V30 21 1 8 22
M  V30 22 1 10 23
M  V30 23 1 10 24
M  V30 24 1 10 25
M  V30 25 1 11 26
M  V30 26 1 11 27
M  V30 END BOND
M  V30 END CTAB
M  END
