
     RDKit          3D

  0  0  0  0  0  0  0  0  0  0999 V3000
M  V30 BEGIN CTAB
M  V30 COUNTS 74 75 0 0 0
M  V30 BEGIN ATOM
M  V30 1 N 7.88183 -1.8093 -0.0481414 0
M  V30 2 C 8.00201 -0.611103 -0.756132 0
M  V30 3 C 6.60427 -0.127552 -1.08659 0
M  V30 4 C 5.81543 0.101103 0.173065 0
M  V30 5 C 4.43229 0.581439 -0.214536 0
M  V30 6 C 3.60618 0.824255 1.04909 0 CFG=2
M  V30 7 C 2.25861 1.29143 0.67124 0
M  V30 8 O 1.9906 2.526 0.714188 0
M  V30 9 N 1.25494 0.379159 0.262081 0
M  V30 10 C 1.47574 -1.03698 0.206815 0
M  V30 11 C 1.26195 -1.67459 -1.13137 0
M  V30 12 C 0.747247 -3.11674 -0.982612 0
M  V30 13 C -0.463802 -3.18185 -0.114487 0
M  V30 14 O -1.53853 -3.88622 -0.647855 0
M  V30 15 C -2.17727 -3.18057 -1.63713 0
M  V30 16 C -3.49956 -2.57942 -1.27049 0 CFG=2
M  V30 17 C -3.70155 -2.23164 0.149901 0 CFG=1
M  V30 18 C -3.87735 -0.784534 0.480791 0 CFG=2
M  V30 19 C -3.04778 0.168683 -0.29656 0
M  V30 20 N -2.38295 1.19734 0.467904 0
M  V30 21 C -1.02971 0.820977 1.02182 0
M  V30 22 C -0.0429897 0.929963 -0.0999824 0
M  V30 23 C -2.77601 2.49614 0.80587 0
M  V30 24 O -1.85038 3.13473 1.49969 0
M  V30 25 C -3.94705 3.278 0.566891 0
M  V30 26 C -3.9088 4.63694 0.960004 0
M  V30 27 C -5.00694 5.41972 0.779936 0
M  V30 28 C -6.16034 4.92099 0.221793 0
M  V30 29 C -6.22377 3.60963 -0.167035 0
M  V30 30 C -5.10123 2.7863 0.0110709 0
M  V30 31 F -7.23747 5.72596 0.0550879 0
M  V30 32 O -3.56322 -0.624156 1.83491 0
M  V30 33 O -4.90369 -2.871 0.564124 0
M  V30 34 O -4.48733 -3.47377 -1.75285 0
M  V30 35 N 4.27391 1.95195 1.74306 0
M  V30 36 H 7.88509 -1.73928 0.90196 0
M  V30 37 H 8.12595 -2.60477 -0.509478 0
M  V30 38 H 8.56244 -0.827594 -1.67772 0
M  V30 39 H 8.47634 0.169209 -0.11713 0
M  V30 40 H 6.63398 0.804157 -1.69232 0
M  V30 41 H 6.0545 -0.889086 -1.68747 0
M  V30 42 H 6.28466 0.896348 0.802687 0
M  V30 43 H 5.72835 -0.856138 0.739183 0
M  V30 44 H 3.95149 -0.126516 -0.888776 0
M  V30 45 H 4.52052 1.58059 -0.695234 0
M  V30 46 H 3.62493 -0.0564193 1.69827 0
M  V30 47 H 0.804146 -1.50517 0.995078 0
M  V30 48 H 2.49366 -1.30172 0.559718 0
M  V30 49 H 0.630428 -1.09395 -1.80883 0
M  V30 50 H 2.25059 -1.79009 -1.66045 0
M  V30 51 H 1.56999 -3.6417 -0.438919 0
M  V30 52 H 0.654057 -3.56649 -1.9674 0
M  V30 53 H -0.273268 -3.51912 0.919716 0
M  V30 54 H -0.831619 -2.11612 -0.0565541 0
M  V30 55 H -1.4761 -2.37348 -1.94448 0
M  V30 56 H -2.34226 -3.8969 -2.4961 0
M  V30 57 H -3.63514 -1.67807 -1.94194 0
M  V30 58 H -2.94808 -2.68971 0.829853 0
M  V30 59 H -4.96852 -0.526197 0.402195 0
M  V30 60 H -3.62185 0.620087 -1.10311 0
M  V30 61 H -2.24353 -0.396751 -0.89088 0
M  V30 62 H -1.14055 -0.231458 1.34531 0
M  V30 63 H -0.814494 1.44717 1.88688 0
M  V30 64 H 0.0528164 2.00816 -0.350363 0
M  V30 65 H -0.425141 0.427962 -0.983577 0
M  V30 66 H -3.03527 5.06023 1.39413 0
M  V30 67 H -4.98193 6.4767 1.08419 0
M  V30 68 H -7.11194 3.18126 -0.608905 0
M  V30 69 H -5.21939 1.77503 -0.297137 0
M  V30 70 H -3.30358 -1.4699 2.27451 0
M  V30 71 H -5.06593 -2.70848 1.5094 0
M  V30 72 H -5.37647 -3.24455 -1.42497 0
M  V30 73 H 3.8198 2.01805 2.70006 0
M  V30 74 H 4.01405 2.79342 1.16503 0
M  V30 END ATOM
M  V30 BEGIN BOND
M  V30 1 1 1 2
M  V30 2 1 2 3
M  V30 3 1 3 4
M  V30 4 1 4 5
M  V30 5 1 5 6
M  V30 6 1 6 7
M  V30 7 2 7 8
M  V30 8 1 7 9
M  V30 9 1 9 10
M  V30 10 1 10 11
M  V30 11 1 11 12
M  V30 12 1 12 13
M  V30 13 1 13 14
M  V30 14 1 14 15
M  V30 15 1 15 16
M  V30 16 1 16 17
M  V30 17 1 17 18
M  V30 18 1 18 19
M  V30 19 1 19 20
M  V30 20 1 20 21
M  V30 21 1 21 22
M  V30 22 1 20 23
M  V30 23 2 23 24
M  V30 24 1 23 25
M  V30 25 2 25 26
M  V30 26 1 26 27
M  V30 27 2 27 28
M  V30 28 1 28 29
M  V30 29 2 29 30
M  V30 30 1 28 31
M  V30 31 1 18 32
M  V30 32 1 17 33
M  V30 33 1 16 34
M  V30 34 1 6 35
M  V30 35 1 22 9
M  V30 36 1 30 25
M  V30 37 1 1 36
M  V30 38 1 1 37
M  V30 39 1 2 38
M  V30 40 1 2 39
M  V30 41 1 3 40
M  V30 42 1 3 41
M  V30 43 1 4 42
M  V30 44 1 4 43
M  V30 45 1 5 44
M  V30 46 1 5 45
M  V30 47 1 6 46 CFG=1
M  V30 48 1 10 47
M  V30 49 1 10 48
M  V30 50 1 11 49
M  V30 51 1 11 50
M  V30 52 1 12 51
M  V30 53 1 12 52
M  V30 54 1 13 53
M  V30 55 1 13 54
M  V30 56 1 15 55
M  V30 57 1 15 56
M  V30 58 1 16 57 CFG=3
M  V30 59 1 17 58 CFG=1
M  V30 60 1 18 59 CFG=1
M  V30 61 1 19 60
M  V30 62 1 19 61
M  V30 63 1 21 62
M  V30 64 1 21 63
M  V30 65 1 22 64
M  V30 66 1 22 65
M  V30 67 1 26 66
M  V30 68 1 27 67
M  V30 69 1 29 68
M  V30 70 1 30 69
M  V30 71 1 32 70
M  V30 72 1 33 71
M  V30 73 1 34 72
M  V30 74 1 35 73
M  V30 75 1 35 74
M  V30 END BOND
M  V30 END CTAB
M  END
