
     RDKit          3D

  0  0  0  0  0  0  0  0  0  0999 V3000
M  V30 BEGIN CTAB
M  V30 COUNTS 26 27 0 0 0
M  V30 BEGIN ATOM
M  V30 1 N 4.35079 -1.25861 0.665629 0
M  V30 2 C 3.15838 -0.499087 0.511949 0
M  V30 3 C 1.9595 -1.07509 0.108424 0
M  V30 4 C 0.806419 -0.335234 -0.0391917 0
M  V30 5 N 0.871223 0.981992 0.221673 0
M  V30 6 C 2.00496 1.56838 0.611017 0
M  V30 7 N 3.12543 0.827253 0.750336 0
M  V30 8 N 2.09841 2.96589 0.893863 0
M  V30 9 N -0.412199 -0.964353 -0.457481 0
M  V30 10 C -1.63477 -0.241796 -0.62548 0 CFG=2
M  V30 11 C -2.1397 0.447563 0.625566 0
M  V30 12 C -2.85348 -0.701205 0.0649408 0 CFG=1
M  V30 13 C -4.22744 -0.502763 -0.5367 0
M  V30 14 H 4.5054 -2.10718 0.0461154 0
M  V30 15 H 5.0908 -1.04354 1.34618 0
M  V30 16 H 1.95278 -2.12767 -0.0888828 0
M  V30 17 H 1.44774 3.64357 0.434787 0
M  V30 18 H 2.79726 3.35767 1.54938 0
M  V30 19 H -0.403733 -1.9897 -0.646003 0
M  V30 20 H -1.78752 0.383253 -1.54517 0
M  V30 21 H -2.61006 1.42848 0.555975 0
M  V30 22 H -1.58268 0.288383 1.57651 0
M  V30 23 H -2.76648 -1.68419 0.610195 0
M  V30 24 H -4.69062 -1.44806 -0.852404 0
M  V30 25 H -4.87219 -0.0937369 0.294465 0
M  V30 26 H -4.18823 0.179778 -1.38992 0
M  V30 END ATOM
M  V30 BEGIN BOND
M  V30 1 1 1 2
M  V30 2 2 2 3
M  V30 3 1 3 4
M  V30 4 2 4 5
M  V30 5 1 5 6
M  V30 6 2 6 7
M  V30 7 1 6 8
M  V30 8 1 4 9
M  V30 9 1 9 10
M  V30 10 1 10 11
M  V30 11 1 11 12
M  V30 12 1 12 13
M  V30 13 1 7 2
M  V30 14 1 12 10
M  V30 15 1 1 14
M  V30 16 1 1 15
M  V30 17 1 3 16
M  V30 18 1 8 17
M  V30 19 1 8 18
M  V30 20 1 9 19
M  V30 21 1 10 20 CFG=3
M  V30 22 1 11 21
M  V30 23 1 11 22
M  V30 24 1 12 23 CFG=1
M  V30 25 1 13 24
M  V30 26 1 13 25
M  V30 27 1 13 26
M  V30 END BOND
M  V30 END CTAB
M  END
