
     RDKit          3D

  0  0  0  0  0  0  0  0  0  0999 V3000
M  V30 BEGIN CTAB
M  V30 COUNTS 35 36 0 0 0
M  V30 BEGIN ATOM
M  V30 1 C -3.55445 1.36583 3.00574 0
M  V30 2 C -3.08669 0.732249 1.73757 0
M  V30 3 C -3.95726 0.102427 0.871741 0
M  V30 4 C -3.50587 -0.478729 -0.298087 0
M  V30 5 C -2.17226 -0.456636 -0.652923 0
M  V30 6 C -1.72639 -1.09481 -1.92282 0
M  V30 7 C -1.29287 0.170733 0.205923 0
M  V30 8 C -1.75678 0.747962 1.37245 0
M  V30 9 N 0.0654553 0.236117 -0.07904 0
M  V30 10 C 0.91308 -0.712362 -0.102018 0
M  V30 11 N 0.640604 -2.06582 0.164937 0
M  V30 12 C 2.28735 -0.342657 -0.437835 0
M  V30 13 C 3.30651 -1.2915 -0.495467 0
M  V30 14 C 4.60813 -0.962519 -0.810223 0
M  V30 15 C 4.94356 0.347451 -1.08309 0
M  V30 16 C 3.96211 1.31262 -1.03565 0
M  V30 17 C 2.66836 0.953141 -0.717708 0
M  V30 18 N 1.62666 1.94945 -0.662981 0
M  V30 19 H -3.1361 0.866565 3.88487 0
M  V30 20 H -3.2124 2.44168 3.04365 0
M  V30 21 H -4.64243 1.36887 3.04126 0
M  V30 22 H -5.01021 0.0687462 1.12294 0
M  V30 23 H -4.18356 -0.980623 -0.992775 0
M  V30 24 H -0.763219 -0.71571 -2.27825 0
M  V30 25 H -2.47548 -0.888424 -2.7184 0
M  V30 26 H -1.67371 -2.20153 -1.8368 0
M  V30 27 H -1.07067 1.25147 2.06756 0
M  V30 28 H 0.326326 -2.30859 1.12959 0
M  V30 29 H 0.718917 -2.86212 -0.502202 0
M  V30 30 H 3.017 -2.3074 -0.277918 0
M  V30 31 H 5.40149 -1.71838 -0.852401 0
M  V30 32 H 5.97417 0.571592 -1.32662 0
M  V30 33 H 4.19844 2.35211 -1.24614 0
M  V30 34 H 1.46619 2.43679 0.222945 0
M  V30 35 H 1.096 2.11201 -1.54184 0
M  V30 END ATOM
M  V30 BEGIN BOND
M  V30 1 1 1 2
M  V30 2 2 2 3
M  V30 3 1 3 4
M  V30 4 2 4 5
M  V30 5 1 5 6
M  V30 6 1 5 7
M  V30 7 2 7 8
M  V30 8 1 7 9
M  V30 9 2 9 10 CFG=2
M  V30 10 1 10 11
M  V30 11 1 10 12
M  V30 12 2 12 13
M  V30 13 1 13 14
M  V30 14 2 14 15
M  V30 15 1 15 16
M  V30 16 2 16 17
M  V30 17 1 17 18
M  V30 18 1 8 2
M  V30 19 1 17 12
M  V30 20 1 1 19
M  V30 21 1 1 20
M  V30 22 1 1 21
M  V30 23 1 3 22
M  V30 24 1 4 23
M  V30 25 1 6 24
M  V30 26 1 6 25
M  V30 27 1 6 26
M  V30 28 1 8 27
M  V30 29 1 11 28
M  V30 30 1 11 29
M  V30 31 1 13 30
M  V30 32 1 14 31
M  V30 33 1 15 32
M  V30 34 1 16 33
M  V30 35 1 18 34
M  V30 36 1 18 35
M  V30 END BOND
M  V30 END CTAB
M  END
