
     RDKit          3D

  0  0  0  0  0  0  0  0  0  0999 V3000
M  V30 BEGIN CTAB
M  V30 COUNTS 45 47 0 0 0
M  V30 BEGIN ATOM
M  V30 1 N -2.40768 -4.77064 -0.22978 0
M  V30 2 C -1.91329 -3.45105 -0.0766184 0
M  V30 3 C -1.5215 -2.69008 -1.16988 0
M  V30 4 C -1.03898 -1.39596 -0.993763 0
M  V30 5 C -0.936249 -0.836221 0.256309 0
M  V30 6 C -1.31801 -1.57005 1.35413 0
M  V30 7 C -1.79614 -2.85482 1.16924 0
M  V30 8 C -0.426307 0.524042 0.417061 0
M  V30 9 C 0.701378 0.860224 -0.524561 0
M  V30 10 C 1.89301 -0.0544028 -0.331393 0
M  V30 11 C 2.94491 0.407242 -1.34812 0
M  V30 12 C 4.17077 -0.420152 -1.25536 0
M  V30 13 C 5.29339 -0.222418 -0.472319 0
M  V30 14 N 6.18863 -1.21862 -0.690906 0
M  V30 15 C 5.64091 -2.03481 -1.59876 0
M  V30 16 N 4.42374 -1.55503 -1.94059 0
M  V30 17 C -1.47324 1.57322 0.322499 0
M  V30 18 C -1.81754 2.12505 -0.891027 0
M  V30 19 C -2.79349 3.09095 -0.906504 0
M  V30 20 C -3.4448 3.53552 0.227673 0
M  V30 21 N -4.45632 4.54242 0.178565 0
M  V30 22 C -3.08972 2.97433 1.4335 0
M  V30 23 C -2.11635 2.00306 1.49444 0
M  V30 24 H -3.41859 -4.90781 -0.384108 0
M  V30 25 H -1.76957 -5.56913 -0.187263 0
M  V30 26 H -1.59567 -3.11489 -2.16059 0
M  V30 27 H -0.75974 -0.885244 -1.91294 0
M  V30 28 H -1.24882 -1.15217 2.37035 0
M  V30 29 H -2.09819 -3.43497 2.0399 0
M  V30 30 H 0.0302204 0.646616 1.45058 0
M  V30 31 H 1.07081 1.89368 -0.369286 0
M  V30 32 H 0.398462 0.750994 -1.5797 0
M  V30 33 H 1.57991 -1.0877 -0.551971 0
M  V30 34 H 2.34803 0.0439888 0.660726 0
M  V30 35 H 2.48055 0.35028 -2.35408 0
M  V30 36 H 3.22215 1.46072 -1.17263 0
M  V30 37 H 5.40516 0.611734 0.200678 0
M  V30 38 H 7.11912 -1.30782 -0.226791 0
M  V30 39 H 6.05793 -2.94198 -2.02432 0
M  V30 40 H -1.32319 1.79268 -1.78724 0
M  V30 41 H -3.07488 3.5365 -1.86682 0
M  V30 42 H -4.3165 5.42885 -0.361427 0
M  V30 43 H -5.36839 4.43385 0.676201 0
M  V30 44 H -3.60722 3.32788 2.33279 0
M  V30 45 H -1.83868 1.56213 2.44932 0
M  V30 END ATOM
M  V30 BEGIN BOND
M  V30 1 1 1 2
M  V30 2 2 2 3
M  V30 3 1 3 4
M  V30 4 2 4 5
M  V30 5 1 5 6
M  V30 6 2 6 7
M  V30 7 1 5 8
M  V30 8 1 8 9
M  V30 9 1 9 10
M  V30 10 1 10 11
M  V30 11 1 11 12
M  V30 12 2 12 13
M  V30 13 1 13 14
M  V30 14 1 14 15
M  V30 15 2 15 16
M  V30 16 1 8 17
M  V30 17 2 17 18
M  V30 18 1 18 19
M  V30 19 2 19 20
M  V30 20 1 20 21
M  V30 21 1 20 22
M  V30 22 2 22 23
M  V30 23 1 7 2
M  V30 24 1 16 12
M  V30 25 1 23 17
M  V30 26 1 1 24
M  V30 27 1 1 25
M  V30 28 1 3 26
M  V30 29 1 4 27
M  V30 30 1 6 28
M  V30 31 1 7 29
M  V30 32 1 8 30
M  V30 33 1 9 31
M  V30 34 1 9 32
M  V30 35 1 10 33
M  V30 36 1 10 34
M  V30 37 1 11 35
M  V30 38 1 11 36
M  V30 39 1 13 37
M  V30 40 1 14 38
M  V30 41 1 15 39
M  V30 42 1 18 40
M  V30 43 1 19 41
M  V30 44 1 21 42
M  V30 45 1 21 43
M  V30 46 1 22 44
M  V30 47 1 23 45
M  V30 END BOND
M  V30 END CTAB
M  END
