
     RDKit          3D

  0  0  0  0  0  0  0  0  0  0999 V3000
M  V30 BEGIN CTAB
M  V30 COUNTS 95 95 0 0 0
M  V30 BEGIN ATOM
M  V30 1 C -4.47763 4.80282 -0.867287 0 CFG=1
M  V30 2 N -3.82497 5.74496 -1.72863 0
M  V30 3 C -5.89332 4.61455 -1.34516 0
M  V30 4 O -6.58881 5.82455 -1.32915 0
M  V30 5 C -3.75809 3.4814 -0.821838 0
M  V30 6 O -2.66134 3.46068 -1.43217 0
M  V30 7 N -4.32077 2.38155 -0.130241 0
M  V30 8 C -3.8018 1.07953 0.0111909 0 CFG=1
M  V30 9 C -3.2034 0.440668 -1.21433 0
M  V30 10 C -4.18104 0.211818 -2.30418 0
M  V30 11 C -4.98571 -0.951041 -2.21613 0
M  V30 12 C -5.88651 -1.25886 -3.20233 0
M  V30 13 C -6.0061 -0.426685 -4.28669 0
M  V30 14 C -5.23913 0.718618 -4.41014 0
M  V30 15 C -4.33644 1.00313 -3.39481 0
M  V30 16 C -3.02494 0.884037 1.25372 0
M  V30 17 O -2.88262 1.85057 2.0725 0
M  V30 18 N -2.42836 -0.342916 1.57916 0
M  V30 19 C -1.66264 -0.563268 2.82547 0 CFG=1
M  V30 20 C -2.22339 -1.76321 3.44015 0
M  V30 21 C -1.75109 -2.26518 4.73197 0
M  V30 22 C -2.55254 -3.53925 5.09285 0
M  V30 23 C -1.99309 -1.32655 5.89538 0
M  V30 24 C -0.266222 -0.469531 2.4544 0
M  V30 25 O -0.000622237 0.588738 1.7225 0
M  V30 26 N 0.842317 -1.25915 2.70756 0
M  V30 27 C 2.19168 -0.943655 2.25428 0 CFG=1
M  V30 28 C 3.24034 -1.37302 3.17923 0
M  V30 29 C 3.36335 -2.80041 3.53015 0
M  V30 30 C 3.64181 -3.77405 2.45052 0
M  V30 31 C 4.51669 -2.93604 4.53863 0
M  V30 32 C 2.42466 -1.21283 0.822636 0
M  V30 33 O 1.55153 -1.67877 0.0531264 0
M  V30 34 N 3.70391 -0.92106 0.286199 0
M  V30 35 C 3.99454 -1.1309 -1.1518 0 CFG=1
M  V30 36 C 4.2477 0.286969 -1.64394 0
M  V30 37 C 4.57329 0.419848 -3.08554 0
M  V30 38 C 4.78378 1.92529 -3.32567 0
M  V30 39 N 5.10174 2.17629 -4.69741 0
M  V30 40 C 6.30106 1.78128 -5.34158 0
M  V30 41 N 6.20565 1.3737 -6.69346 0
M  V30 42 N 7.4007 1.81278 -4.67964 0
M  V30 43 C 5.21031 -1.942 -1.23849 0
M  V30 44 O 5.71782 -2.30858 -2.46729 0
M  V30 45 O 5.80277 -2.31238 -0.20449 0
M  V30 46 H -4.53225 5.194 0.185324 0
M  V30 47 H -4.52183 6.4628 -2.04855 0
M  V30 48 H -3.49947 5.27445 -2.60644 0
M  V30 49 H -6.43677 3.84538 -0.734332 0
M  V30 50 H -5.88038 4.25305 -2.38756 0
M  V30 51 H -7.55451 5.63256 -1.23897 0
M  V30 52 H -5.25702 2.59731 0.341923 0
M  V30 53 H -4.77698 0.40662 0.13133 0
M  V30 54 H -2.34461 1.04983 -1.62503 0
M  V30 55 H -2.76097 -0.54509 -0.93445 0
M  V30 56 H -4.86878 -1.58151 -1.35208 0
M  V30 57 H -6.51489 -2.16542 -3.13735 0
M  V30 58 H -6.70551 -0.639266 -5.08638 0
M  V30 59 H -5.34186 1.36208 -5.26171 0
M  V30 60 H -3.7508 1.90724 -3.5401 0
M  V30 61 H -2.54084 -1.15022 0.903875 0
M  V30 62 H -1.88661 0.384806 3.40712 0
M  V30 63 H -3.36508 -1.70049 3.51293 0
M  V30 64 H -2.10488 -2.60821 2.68367 0
M  V30 65 H -0.717627 -2.57496 4.78992 0
M  V30 66 H -2.46744 -4.17757 4.21564 0
M  V30 67 H -3.57317 -3.22199 5.33423 0
M  V30 68 H -2.06939 -4.03453 5.97788 0
M  V30 69 H -3.07391 -1.25514 6.16162 0
M  V30 70 H -1.48326 -1.77251 6.77333 0
M  V30 71 H -1.5116 -0.342422 5.73789 0
M  V30 72 H 0.768124 -2.14541 3.23527 0
M  V30 73 H 2.1803 0.213308 2.26503 0
M  V30 74 H 3.14291 -0.81031 4.16387 0
M  V30 75 H 4.23126 -1.01 2.78376 0
M  V30 76 H 2.4718 -3.18496 4.10769 0
M  V30 77 H 4.75383 -3.95089 2.31338 0
M  V30 78 H 3.12631 -3.65486 1.50455 0
M  V30 79 H 3.30148 -4.78989 2.8295 0
M  V30 80 H 5.3973 -2.39017 4.16751 0
M  V30 81 H 4.78332 -4.00129 4.70141 0
M  V30 82 H 4.2061 -2.44881 5.49024 0
M  V30 83 H 4.51622 -0.555664 0.838325 0
M  V30 84 H 3.09746 -1.57084 -1.63955 0
M  V30 85 H 5.02133 0.710617 -0.968021 0
M  V30 86 H 3.32389 0.870318 -1.43906 0
M  V30 87 H 3.74592 0.0631163 -3.70331 0
M  V30 88 H 5.53497 -0.0423242 -3.38504 0
M  V30 89 H 5.59427 2.26541 -2.65718 0
M  V30 90 H 3.84683 2.4171 -3.02075 0
M  V30 91 H 4.38657 2.70124 -5.2661 0
M  V30 92 H 5.74942 2.02195 -7.36905 0
M  V30 93 H 6.56334 0.464142 -7.05236 0
M  V30 94 H 7.40684 2.12545 -3.6813 0
M  V30 95 H 5.52556 -3.26248 -2.79491 0
M  V30 END ATOM
M  V30 BEGIN BOND
M  V30 1 1 1 2
M  V30 2 1 1 3
M  V30 3 1 3 4
M  V30 4 1 1 5
M  V30 5 2 5 6
M  V30 6 1 5 7
M  V30 7 1 7 8
M  V30 8 1 8 9
M  V30 9 1 9 10
M  V30 10 2 10 11
M  V30 11 1 11 12
M  V30 12 2 12 13
M  V30 13 1 13 14
M  V30 14 2 14 15
M  V30 15 1 8 16
M  V30 16 2 16 17
M  V30 17 1 16 18
M  V30 18 1 18 19
M  V30 19 1 19 20
M  V30 20 1 20 21
M  V30 21 1 21 22
M  V30 22 1 21 23
M  V30 23 1 19 24
M  V30 24 2 24 25
M  V30 25 1 24 26
M  V30 26 1 26 27
M  V30 27 1 27 28
M  V30 28 1 28 29
M  V30 29 1 29 30
M  V30 30 1 29 31
M  V30 31 1 27 32
M  V30 32 2 32 33
M  V30 33 1 32 34
M  V30 34 1 34 35
M  V30 35 1 35 36
M  V30 36 1 36 37
M  V30 37 1 37 38
M  V30 38 1 38 39
M  V30 39 1 39 40
M  V30 40 1 40 41
M  V30 41 2 40 42 CFG=2
M  V30 42 1 35 43
M  V30 43 1 43 44
M  V30 44 2 43 45
M  V30 45 1 15 10
M  V30 46 1 1 46 CFG=1
M  V30 47 1 2 47
M  V30 48 1 2 48
M  V30 49 1 3 49
M  V30 50 1 3 50
M  V30 51 1 4 51
M  V30 52 1 7 52
M  V30 53 1 8 53 CFG=1
M  V30 54 1 9 54
M  V30 55 1 9 55
M  V30 56 1 11 56
M  V30 57 1 12 57
M  V30 58 1 13 58
M  V30 59 1 14 59
M  V30 60 1 15 60
M  V30 61 1 18 61
M  V30 62 1 19 62 CFG=1
M  V30 63 1 20 63
M  V30 64 1 20 64
M  V30 65 1 21 65
M  V30 66 1 22 66
M  V30 67 1 22 67
M  V30 68 1 22 68
M  V30 69 1 23 69
M  V30 70 1 23 70
M  V30 71 1 23 71
M  V30 72 1 26 72
M  V30 73 1 27 73 CFG=3
M  V30 74 1 28 74
M  V30 75 1 28 75
M  V30 76 1 29 76
M  V30 77 1 30 77
M  V30 78 1 30 78
M  V30 79 1 30 79
M  V30 80 1 31 80
M  V30 81 1 31 81
M  V30 82 1 31 82
M  V30 83 1 34 83
M  V30 84 1 35 84 CFG=3
M  V30 85 1 36 85
M  V30 86 1 36 86
M  V30 87 1 37 87
M  V30 88 1 37 88
M  V30 89 1 38 89
M  V30 90 1 38 90
M  V30 91 1 39 91
M  V30 92 1 41 92
M  V30 93 1 41 93
M  V30 94 1 42 94
M  V30 95 1 44 95
M  V30 END BOND
M  V30 END CTAB
M  END
