
     RDKit          3D

  0  0  0  0  0  0  0  0  0  0999 V3000
M  V30 BEGIN CTAB
M  V30 COUNTS 36 38 0 0 0
M  V30 BEGIN ATOM
M  V30 1 O 7.73524 0.632611 -0.386927 0
M  V30 2 C 6.63586 0.143273 -0.0505341 0
M  V30 3 C 6.49769 -0.635811 1.22236 0
M  V30 4 O 5.29445 -0.290955 1.8769 0
M  V30 5 C 4.12111 -0.152066 1.14266 0
M  V30 6 C 4.20134 0.13335 -0.183742 0
M  V30 7 N 5.47162 0.294493 -0.84237 0
M  V30 8 C 3.0442 0.268645 -0.898762 0
M  V30 9 C 1.75537 0.134615 -0.366148 0
M  V30 10 C 1.69359 -0.152436 0.968845 0
M  V30 11 C 2.87626 -0.293352 1.7121 0
M  V30 12 C 0.633769 0.301289 -1.22259 0
M  V30 13 O 0.931401 0.570869 -2.48085 0
M  V30 14 C -0.798739 0.244337 -1.03813 0
M  V30 15 S -1.49156 -0.0851474 0.548033 0
M  V30 16 C -3.27451 -0.0741923 0.425367 0
M  V30 17 N -3.9583 1.06867 0.604012 0
M  V30 18 C -5.29598 1.14823 0.526961 0
M  V30 19 N -5.9853 2.36193 0.719125 0
M  V30 20 C -6.03575 0.0172184 0.251862 0
M  V30 21 C -5.33903 -1.16163 0.0669619 0
M  V30 22 N -3.99107 -1.1954 0.15386 0
M  V30 23 N -6.11567 -2.32177 -0.216251 0
M  V30 24 H 6.53289 -1.70321 0.997333 0
M  V30 25 H 7.33804 -0.390791 1.90373 0
M  V30 26 H 5.54698 0.513648 -1.85923 0
M  V30 27 H 3.18717 0.499989 -1.96847 0
M  V30 28 H 0.765419 -0.282467 1.50637 0
M  V30 29 H 2.80429 -0.520716 2.76652 0
M  V30 30 H -1.19573 1.27029 -1.36306 0
M  V30 31 H -1.20057 -0.46665 -1.82112 0
M  V30 32 H -6.04614 2.77053 1.66191 0
M  V30 33 H -6.4245 2.83461 -0.0822278 0
M  V30 34 H -7.1185 0.0297969 0.179259 0
M  V30 35 H -5.81969 -2.9397 -0.977005 0
M  V30 36 H -6.97565 -2.5721 0.317394 0
M  V30 END ATOM
M  V30 BEGIN BOND
M  V30 1 2 1 2
M  V30 2 1 2 3
M  V30 3 1 3 4
M  V30 4 1 4 5
M  V30 5 2 5 6
M  V30 6 1 6 7
M  V30 7 1 6 8
M  V30 8 2 8 9
M  V30 9 1 9 10
M  V30 10 2 10 11
M  V30 11 1 9 12
M  V30 12 2 12 13
M  V30 13 1 12 14
M  V30 14 1 14 15
M  V30 15 1 15 16
M  V30 16 2 16 17
M  V30 17 1 17 18
M  V30 18 1 18 19
M  V30 19 2 18 20
M  V30 20 1 20 21
M  V30 21 2 21 22
M  V30 22 1 21 23
M  V30 23 1 7 2
M  V30 24 1 22 16
M  V30 25 1 11 5
M  V30 26 1 3 24
M  V30 27 1 3 25
M  V30 28 1 7 26
M  V30 29 1 8 27
M  V30 30 1 10 28
M  V30 31 1 11 29
M  V30 32 1 14 30
M  V30 33 1 14 31
M  V30 34 1 19 32
M  V30 35 1 19 33
M  V30 36 1 20 34
M  V30 37 1 23 35
M  V30 38 1 23 36
M  V30 END BOND
M  V30 END CTAB
M  END
