
     RDKit          3D

  0  0  0  0  0  0  0  0  0  0999 V3000
M  V30 BEGIN CTAB
M  V30 COUNTS 31 32 0 0 0
M  V30 BEGIN ATOM
M  V30 1 N -0.242031 -1.61554 -0.908503 0
M  V30 2 C -0.137365 -0.174287 -0.715363 0
M  V30 3 C -1.24983 0.276281 0.159209 0
M  V30 4 C -1.19402 1.7857 0.380454 0
M  V30 5 C -2.64339 -0.0959506 -0.326555 0
M  V30 6 C -2.94362 -0.834035 0.962961 0
M  V30 7 C -1.53027 -0.52415 1.3849 0
M  V30 8 C 1.22109 0.0729876 -0.230165 0
M  V30 9 C 1.55397 0.50875 1.02945 0
M  V30 10 C 2.89171 0.700803 1.38494 0
M  V30 11 C 3.90377 0.462851 0.49724 0
M  V30 12 N 3.56461 0.0418778 -0.716707 0
M  V30 13 C 2.29234 -0.157311 -1.10496 0
M  V30 14 N 2.06658 -0.599416 -2.41803 0
M  V30 15 H -0.108399 -1.85804 -1.91613 0
M  V30 16 H -1.07885 -2.04429 -0.494471 0
M  V30 17 H -0.30089 0.296965 -1.72851 0
M  V30 18 H -1.9647 2.26787 -0.24797 0
M  V30 19 H -1.38984 2.0439 1.42071 0
M  V30 20 H -0.222593 2.21046 -0.00508657 0
M  V30 21 H -2.67603 -0.708908 -1.23366 0
M  V30 22 H -3.35203 0.76592 -0.423159 0
M  V30 23 H -3.15588 -1.89549 0.736771 0
M  V30 24 H -3.69881 -0.348536 1.61707 0
M  V30 25 H -0.930758 -1.44721 1.42393 0
M  V30 26 H -1.44525 0.0428513 2.34122 0
M  V30 27 H 0.780772 0.701792 1.74876 0
M  V30 28 H 3.10096 1.04838 2.39888 0
M  V30 29 H 4.91927 0.615469 0.787358 0
M  V30 30 H 1.76664 0.0548709 -3.15513 0
M  V30 31 H 2.20286 -1.59456 -2.64943 0
M  V30 END ATOM
M  V30 BEGIN BOND
M  V30 1 1 1 2
M  V30 2 1 2 3
M  V30 3 1 3 4
M  V30 4 1 3 5
M  V30 5 1 5 6
M  V30 6 1 6 7
M  V30 7 1 2 8
M  V30 8 2 8 9
M  V30 9 1 9 10
M  V30 10 2 10 11
M  V30 11 1 11 12
M  V30 12 2 12 13
M  V30 13 1 13 14
M  V30 14 1 7 3
M  V30 15 1 13 8
M  V30 16 1 1 15
M  V30 17 1 1 16
M  V30 18 1 2 17
M  V30 19 1 4 18
M  V30 20 1 4 19
M  V30 21 1 4 20
M  V30 22 1 5 21
M  V30 23 1 5 22
M  V30 24 1 6 23
M  V30 25 1 6 24
M  V30 26 1 7 25
M  V30 27 1 7 26
M  V30 28 1 9 27
M  V30 29 1 10 28
M  V30 30 1 11 29
M  V30 31 1 14 30
M  V30 32 1 14 31
M  V30 END BOND
M  V30 END CTAB
M  END
