
     RDKit          3D

  0  0  0  0  0  0  0  0  0  0999 V3000
M  V30 BEGIN CTAB
M  V30 COUNTS 19 19 0 0 0
M  V30 BEGIN ATOM
M  V30 1 N -2.67653 -0.905251 -0.447506 0
M  V30 2 C -1.30821 -0.576271 -0.234872 0
M  V30 3 C -0.344157 -1.56152 -0.208595 0
M  V30 4 C 0.98677 -1.25526 -0.00315295 0
M  V30 5 Cl 2.22543 -2.51975 0.0307461 0
M  V30 6 C 1.40942 0.0477834 0.184487 0
M  V30 7 C 0.456208 1.03444 0.159772 0
M  V30 8 C -0.877785 0.718213 -0.0470823 0
M  V30 9 N -1.85341 1.74082 -0.0710889 0
M  V30 10 C 2.85927 0.335055 0.403584 0
M  V30 11 F 3.31632 -0.315089 1.53242 0
M  V30 12 F 2.97912 1.69468 0.559142 0
M  V30 13 F 3.54978 -0.152607 -0.673158 0
M  V30 14 H -3.43226 -0.32018 -0.0335724 0
M  V30 15 H -2.98143 -1.72695 -1.01356 0
M  V30 16 H -0.661719 -2.58391 -0.353985 0
M  V30 17 H 0.76205 2.06729 0.304693 0
M  V30 18 H -1.85207 2.41981 0.722465 0
M  V30 19 H -2.55679 1.8587 -0.810737 0
M  V30 END ATOM
M  V30 BEGIN BOND
M  V30 1 1 1 2
M  V30 2 2 2 3
M  V30 3 1 3 4
M  V30 4 1 4 5
M  V30 5 2 4 6
M  V30 6 1 6 7
M  V30 7 2 7 8
M  V30 8 1 8 9
M  V30 9 1 6 10
M  V30 10 1 10 11
M  V30 11 1 10 12
M  V30 12 1 10 13
M  V30 13 1 8 2
M  V30 14 1 1 14
M  V30 15 1 1 15
M  V30 16 1 3 16
M  V30 17 1 7 17
M  V30 18 1 9 18
M  V30 19 1 9 19
M  V30 END BOND
M  V30 END CTAB
M  END
