
     RDKit          3D

  0  0  0  0  0  0  0  0  0  0999 V3000
M  V30 BEGIN CTAB
M  V30 COUNTS 123 123 0 0 0
M  V30 BEGIN ATOM
M  V30 1 C -11.7349 6.18834 2.19619 0
M  V30 2 S -10.1935 5.22875 2.33512 0
M  V30 3 C -10.4045 3.5532 1.65199 0
M  V30 4 C -11.3615 2.74667 2.45249 0
M  V30 5 C -11.6116 1.34896 1.95052 0 CFG=2
M  V30 6 N -12.5824 0.712584 2.87569 0
M  V30 7 C -10.4475 0.480277 1.91113 0
M  V30 8 O -10.2838 -0.416844 2.77334 0
M  V30 9 N -9.45335 0.596931 0.90836 0
M  V30 10 C -8.29737 -0.244457 0.844139 0 CFG=1
M  V30 11 C -8.45399 -1.23769 -0.344863 0
M  V30 12 C -9.65199 -2.09297 -0.145202 0
M  V30 13 C -9.89407 -3.08428 -1.22914 0
M  V30 14 N -10.1576 -2.59637 -2.53433 0
M  V30 15 C -9.26226 -1.96418 -3.39851 0
M  V30 16 N -9.63352 -0.750159 -4.03699 0
M  V30 17 N -8.11426 -2.47094 -3.63504 0
M  V30 18 C -7.01899 0.425944 0.601057 0
M  V30 19 O -6.88496 1.39627 -0.201989 0
M  V30 20 N -5.84396 -0.0253966 1.29326 0
M  V30 21 C -4.57561 0.609753 1.04143 0 CFG=1
M  V30 22 C -4.49865 1.76088 2.0858 0
M  V30 23 C -3.45967 -0.315145 1.32656 0
M  V30 24 O -3.57285 -1.15353 2.27491 0
M  V30 25 N -2.23775 -0.352143 0.614818 0
M  V30 26 C -1.17573 -1.27151 0.9593 0 CFG=1
M  V30 27 C -1.2584 -2.45558 0.00888096 0
M  V30 28 C 0.13085 -0.635117 0.960176 0
M  V30 29 O 0.152103 0.60859 0.643747 0
M  V30 30 N 1.36765 -1.24507 1.27124 0
M  V30 31 C 2.6002 -0.532808 1.23171 0 CFG=1
M  V30 32 C 3.37509 -0.416366 2.47524 0
M  V30 33 C 3.82226 -1.6457 3.16857 0
M  V30 34 C 4.69163 -2.55299 2.41774 0
M  V30 35 O 6.09481 -2.40738 2.50881 0
M  V30 36 O 4.23453 -3.46782 1.68751 0
M  V30 37 C 3.43548 -0.845933 0.0678873 0
M  V30 38 O 2.92218 -1.65673 -0.780842 0
M  V30 39 N 4.71593 -0.361172 -0.223095 0
M  V30 40 C 5.41768 -0.748357 -1.4358 0 CFG=1
M  V30 41 C 5.20068 0.437107 -2.38801 0
M  V30 42 C 5.72165 1.70087 -1.85438 0
M  V30 43 O 6.4461 1.91693 -0.707027 0
M  V30 44 O 5.48333 2.76643 -2.53503 0
M  V30 45 C 6.83826 -1.02287 -1.26016 0
M  V30 46 O 7.36134 -0.73265 -0.159636 0
M  V30 47 N 7.69615 -1.60856 -2.25813 0
M  V30 48 C 7.21061 -2.0987 -3.52982 0
M  V30 49 C 8.2984 -1.54446 -4.43772 0
M  V30 50 C 9.56273 -1.91304 -3.6544 0
M  V30 51 C 9.10133 -1.83771 -2.21155 0 CFG=1
M  V30 52 C 9.9025 -0.805812 -1.50057 0
M  V30 53 O 10.9328 -1.26368 -0.906496 0
M  V30 54 N 9.63798 0.557256 -1.4347 0
M  V30 55 C 10.4826 1.53931 -0.692653 0 CFG=1
M  V30 56 C 10.3816 1.25012 0.739174 0
M  V30 57 C 11.1201 2.04712 1.71788 0
M  V30 58 S 12.9175 1.90224 1.6345 0
M  V30 59 C 13.4312 0.20958 2.06613 0
M  V30 60 C 11.7485 1.70237 -1.37561 0
M  V30 61 O 12.716 2.66691 -1.12393 0
M  V30 62 O 12.0847 0.908182 -2.34129 0
M  V30 63 H -11.75 6.88369 3.04164 0
M  V30 64 H -11.6726 6.78394 1.26628 0
M  V30 65 H -12.6283 5.53276 2.11988 0
M  V30 66 H -9.38892 3.07033 1.76274 0
M  V30 67 H -10.6029 3.64527 0.589483 0
M  V30 68 H -11.0456 2.65974 3.51325 0
M  V30 69 H -12.3693 3.25459 2.50472 0
M  V30 70 H -12.1285 1.37347 0.967246 0
M  V30 71 H -12.5044 1.16128 3.80691 0
M  V30 72 H -13.5274 0.690368 2.47411 0
M  V30 73 H -9.57315 1.32807 0.178549 0
M  V30 74 H -8.21895 -0.905442 1.72164 0
M  V30 75 H -8.45549 -0.655779 -1.27769 0
M  V30 76 H -7.54272 -1.86331 -0.32707 0
M  V30 77 H -10.5926 -1.50929 -0.00375111 0
M  V30 78 H -9.56434 -2.6688 0.831308 0
M  V30 79 H -8.96659 -3.72395 -1.30597 0
M  V30 80 H -10.6924 -3.81973 -0.942286 0
M  V30 81 H -11.161 -2.72783 -2.90222 0
M  V30 82 H -9.86085 0.0997458 -3.48334 0
M  V30 83 H -9.67649 -0.72143 -5.07017 0
M  V30 84 H -7.46156 -1.97916 -4.28602 0
M  V30 85 H -5.92829 -0.79896 1.96397 0
M  V30 86 H -4.58119 1.05812 0.0424671 0
M  V30 87 H -4.71802 1.32469 3.06229 0
M  V30 88 H -5.24072 2.54676 1.83083 0
M  V30 89 H -3.47191 2.15617 1.99281 0
M  V30 90 H -2.11937 0.318341 -0.183494 0
M  V30 91 H -1.41258 -1.65739 1.97559 0
M  V30 92 H -0.850124 -2.26768 -0.982029 0
M  V30 93 H -2.33264 -2.7107 -0.0904037 0
M  V30 94 H -0.784359 -3.35984 0.442668 0
M  V30 95 H 1.36364 -2.25002 1.53721 0
M  V30 96 H 2.27216 0.57601 0.986148 0
M  V30 97 H 2.81183 0.264171 3.19331 0
M  V30 98 H 4.30848 0.202071 2.26729 0
M  V30 99 H 4.43263 -1.29582 4.06102 0
M  V30 100 H 2.97438 -2.18865 3.66925 0
M  V30 101 H 6.64842 -3.2496 2.3909 0
M  V30 102 H 5.17972 0.27649 0.441075 0
M  V30 103 H 4.85707 -1.57998 -1.93896 0
M  V30 104 H 5.72253 0.261495 -3.34323 0
M  V30 105 H 4.11745 0.511739 -2.6473 0
M  V30 106 H 7.33407 2.41439 -0.684702 0
M  V30 107 H 6.20236 -1.8962 -3.80254 0
M  V30 108 H 7.34018 -3.2395 -3.52823 0
M  V30 109 H 8.16685 -0.460977 -4.49775 0
M  V30 110 H 8.23005 -2.08876 -5.38857 0
M  V30 111 H 10.32 -1.10677 -3.84067 0
M  V30 112 H 9.92843 -2.90718 -3.92673 0
M  V30 113 H 9.26109 -2.85183 -1.78676 0
M  V30 114 H 8.82378 0.949343 -1.93085 0
M  V30 115 H 9.91759 2.53016 -0.851847 0
M  V30 116 H 10.609 0.163557 0.97548 0
M  V30 117 H 9.26272 1.33727 0.992163 0
M  V30 118 H 10.8484 1.7001 2.76959 0
M  V30 119 H 10.8308 3.13138 1.74508 0
M  V30 120 H 14.0239 -0.264447 1.24107 0
M  V30 121 H 12.5805 -0.414977 2.37458 0
M  V30 122 H 14.1559 0.242222 2.92803 0
M  V30 123 H 13.1275 3.22886 -1.84221 0
M  V30 END ATOM
M  V30 BEGIN BOND
M  V30 1 1 1 2
M  V30 2 1 2 3
M  V30 3 1 3 4
M  V30 4 1 4 5
M  V30 5 1 5 6
M  V30 6 1 5 7
M  V30 7 2 7 8
M  V30 8 1 7 9
M  V30 9 1 9 10
M  V30 10 1 10 11
M  V30 11 1 11 12
M  V30 12 1 12 13
M  V30 13 1 13 14
M  V30 14 1 14 15
M  V30 15 1 15 16
M  V30 16 2 15 17 CFG=2
M  V30 17 1 10 18
M  V30 18 2 18 19
M  V30 19 1 18 20
M  V30 20 1 20 21
M  V30 21 1 21 22
M  V30 22 1 21 23
M  V30 23 2 23 24
M  V30 24 1 23 25
M  V30 25 1 25 26
M  V30 26 1 26 27
M  V30 27 1 26 28
M  V30 28 2 28 29
M  V30 29 1 28 30
M  V30 30 1 30 31
M  V30 31 1 31 32
M  V30 32 1 32 33
M  V30 33 1 33 34
M  V30 34 1 34 35
M  V30 35 2 34 36
M  V30 36 1 31 37
M  V30 37 2 37 38
M  V30 38 1 37 39
M  V30 39 1 39 40
M  V30 40 1 40 41
M  V30 41 1 41 42
M  V30 42 1 42 43
M  V30 43 2 42 44
M  V30 44 1 40 45
M  V30 45 2 45 46
M  V30 46 1 45 47
M  V30 47 1 47 48
M  V30 48 1 48 49
M  V30 49 1 49 50
M  V30 50 1 50 51
M  V30 51 1 51 52
M  V30 52 2 52 53
M  V30 53 1 52 54
M  V30 54 1 54 55
M  V30 55 1 55 56
M  V30 56 1 56 57
M  V30 57 1 57 58
M  V30 58 1 58 59
M  V30 59 1 55 60
M  V30 60 1 60 61
M  V30 61 2 60 62
M  V30 62 1 51 47
M  V30 63 1 1 63
M  V30 64 1 1 64
M  V30 65 1 1 65
M  V30 66 1 3 66
M  V30 67 1 3 67
M  V30 68 1 4 68
M  V30 69 1 4 69
M  V30 70 1 5 70 CFG=3
M  V30 71 1 6 71
M  V30 72 1 6 72
M  V30 73 1 9 73
M  V30 74 1 10 74 CFG=1
M  V30 75 1 11 75
M  V30 76 1 11 76
M  V30 77 1 12 77
M  V30 78 1 12 78
M  V30 79 1 13 79
M  V30 80 1 13 80
M  V30 81 1 14 81
M  V30 82 1 16 82
M  V30 83 1 16 83
M  V30 84 1 17 84
M  V30 85 1 20 85
M  V30 86 1 21 86 CFG=3
M  V30 87 1 22 87
M  V30 88 1 22 88
M  V30 89 1 22 89
M  V30 90 1 25 90
M  V30 91 1 26 91 CFG=1
M  V30 92 1 27 92
M  V30 93 1 27 93
M  V30 94 1 27 94
M  V30 95 1 30 95
M  V30 96 1 31 96 CFG=3
M  V30 97 1 32 97
M  V30 98 1 32 98
M  V30 99 1 33 99
M  V30 100 1 33 100
M  V30 101 1 35 101
M  V30 102 1 39 102
M  V30 103 1 40 103 CFG=3
M  V30 104 1 41 104
M  V30 105 1 41 105
M  V30 106 1 43 106
M  V30 107 1 48 107
M  V30 108 1 48 108
M  V30 109 1 49 109
M  V30 110 1 49 110
M  V30 111 1 50 111
M  V30 112 1 50 112
M  V30 113 1 51 113 CFG=1
M  V30 114 1 54 114
M  V30 115 1 55 115 CFG=1
M  V30 116 1 56 116
M  V30 117 1 56 117
M  V30 118 1 57 118
M  V30 119 1 57 119
M  V30 120 1 59 120
M  V30 121 1 59 121
M  V30 122 1 59 122
M  V30 123 1 61 123
M  V30 END BOND
M  V30 END CTAB
M  END
