
     RDKit          3D

  0  0  0  0  0  0  0  0  0  0999 V3000
M  V30 BEGIN CTAB
M  V30 COUNTS 24 25 0 0 0
M  V30 BEGIN ATOM
M  V30 1 N 3.54245 0.637496 -1.17867 0
M  V30 2 C 2.76438 0.4517 0.0135565 0
M  V30 3 C 1.33241 0.21131 -0.30272 0
M  V30 4 C 0.940813 0.196172 -1.64009 0
M  V30 5 N -0.352492 -0.0212188 -1.91865 0
M  V30 6 C -1.30057 -0.226446 -0.989049 0
M  V30 7 C -0.917321 -0.212864 0.350337 0
M  V30 8 C 0.399189 0.00639804 0.684027 0
M  V30 9 N 0.757515 0.0150033 2.03748 0
M  V30 10 C -1.9026 -0.425626 1.30435 0
M  V30 11 C -3.21911 -0.64419 0.954057 0
M  V30 12 C -3.60712 -0.659217 -0.37052 0
M  V30 13 C -2.6246 -0.446986 -1.3235 0
M  V30 14 H 4.53208 0.838854 -0.91818 0
M  V30 15 H 3.20885 1.49931 -1.68683 0
M  V30 16 H 3.13363 -0.494778 0.495254 0
M  V30 17 H 2.91204 1.30662 0.705603 0
M  V30 18 H 1.68578 0.359562 -2.42328 0
M  V30 19 H 0.936755 -0.826538 2.62916 0
M  V30 20 H 0.86663 0.937252 2.54235 0
M  V30 21 H -1.5793 -0.410127 2.33451 0
M  V30 22 H -3.95618 -0.805782 1.72795 0
M  V30 23 H -4.64429 -0.830791 -0.661883 0
M  V30 24 H -2.90894 -0.455117 -2.36526 0
M  V30 END ATOM
M  V30 BEGIN BOND
M  V30 1 1 1 2
M  V30 2 1 2 3
M  V30 3 2 3 4
M  V30 4 1 4 5
M  V30 5 2 5 6
M  V30 6 1 6 7
M  V30 7 2 7 8
M  V30 8 1 8 9
M  V30 9 1 7 10
M  V30 10 2 10 11
M  V30 11 1 11 12
M  V30 12 2 12 13
M  V30 13 1 8 3
M  V30 14 1 13 6
M  V30 15 1 1 14
M  V30 16 1 1 15
M  V30 17 1 2 16
M  V30 18 1 2 17
M  V30 19 1 4 18
M  V30 20 1 9 19
M  V30 21 1 9 20
M  V30 22 1 10 21
M  V30 23 1 11 22
M  V30 24 1 12 23
M  V30 25 1 13 24
M  V30 END BOND
M  V30 END CTAB
M  END
