
     RDKit          3D

  0  0  0  0  0  0  0  0  0  0999 V3000
M  V30 BEGIN CTAB
M  V30 COUNTS 40 42 0 0 0
M  V30 BEGIN ATOM
M  V30 1 C -3.49515 2.99305 -2.01912 0
M  V30 2 O -2.32715 2.25736 -1.72091 0
M  V30 3 C -2.45871 1.063 -1.03342 0
M  V30 4 C -3.69872 0.59862 -0.646884 0
M  V30 5 C -3.83056 -0.578552 0.0309185 0
M  V30 6 C -2.70584 -1.29446 0.322281 0
M  V30 7 O -2.85577 -2.49897 1.01733 0
M  V30 8 C -4.10371 -2.97814 1.413 0
M  V30 9 C -1.45151 -0.855787 -0.0511735 0
M  V30 10 C -0.308782 -1.72265 0.323583 0
M  V30 11 C 0.986907 -1.21461 -0.0931749 0
M  V30 12 C 1.71403 -0.39194 0.72984 0
M  V30 13 C 2.9503 0.0919688 0.330551 0
M  V30 14 C 3.47083 -0.243877 -0.898441 0
M  V30 15 N 2.75013 -1.04972 -1.69539 0
M  V30 16 C 1.5289 -1.53523 -1.31567 0
M  V30 17 N 4.68372 0.234803 -1.28249 0
M  V30 18 C 5.35589 1.03709 -0.439535 0
M  V30 19 N 6.63139 1.58326 -0.759346 0
M  V30 20 N 4.84765 1.3678 0.765941 0
M  V30 21 C 3.67027 0.930387 1.1923 0
M  V30 22 N 3.10378 1.25488 2.4492 0
M  V30 23 C -1.3369 0.316572 -0.724529 0
M  V30 24 H -4.08609 3.18186 -1.08662 0
M  V30 25 H -3.289 3.96981 -2.46937 0
M  V30 26 H -4.15023 2.4437 -2.74706 0
M  V30 27 H -4.58006 1.20309 -0.899741 0
M  V30 28 H -4.84091 -0.889282 0.307684 0
M  V30 29 H -4.52686 -2.33137 2.21186 0
M  V30 30 H -3.96176 -4.03263 1.76293 0
M  V30 31 H -4.83353 -3.02967 0.577567 0
M  V30 32 H -0.4849 -2.75242 -0.0859619 0
M  V30 33 H -0.34226 -1.84332 1.432 0
M  V30 34 H 1.34882 -0.0974194 1.70792 0
M  V30 35 H 0.955777 -2.18365 -1.96433 0
M  V30 36 H 7.31904 1.81741 -0.0114718 0
M  V30 37 H 6.92549 1.76874 -1.74202 0
M  V30 38 H 3.46935 0.856315 3.32631 0
M  V30 39 H 2.30135 1.91144 2.47203 0
M  V30 40 H -0.345229 0.642506 -1.00799 0
M  V30 END ATOM
M  V30 BEGIN BOND
M  V30 1 1 1 2
M  V30 2 1 2 3
M  V30 3 2 3 4
M  V30 4 1 4 5
M  V30 5 2 5 6
M  V30 6 1 6 7
M  V30 7 1 7 8
M  V30 8 1 6 9
M  V30 9 1 9 10
M  V30 10 1 10 11
M  V30 11 2 11 12
M  V30 12 1 12 13
M  V30 13 2 13 14
M  V30 14 1 14 15
M  V30 15 2 15 16
M  V30 16 1 14 17
M  V30 17 2 17 18
M  V30 18 1 18 19
M  V30 19 1 18 20
M  V30 20 2 20 21
M  V30 21 1 21 22
M  V30 22 2 9 23
M  V30 23 1 23 3
M  V30 24 1 16 11
M  V30 25 1 21 13
M  V30 26 1 1 24
M  V30 27 1 1 25
M  V30 28 1 1 26
M  V30 29 1 4 27
M  V30 30 1 5 28
M  V30 31 1 8 29
M  V30 32 1 8 30
M  V30 33 1 8 31
M  V30 34 1 10 32
M  V30 35 1 10 33
M  V30 36 1 12 34
M  V30 37 1 16 35
M  V30 38 1 19 36
M  V30 39 1 19 37
M  V30 40 1 22 38
M  V30 41 1 22 39
M  V30 42 1 23 40
M  V30 END BOND
M  V30 END CTAB
M  END
