
     RDKit          3D

  0  0  0  0  0  0  0  0  0  0999 V3000
M  V30 BEGIN CTAB
M  V30 COUNTS 23 22 0 0 0
M  V30 BEGIN ATOM
M  V30 1 N -3.87966 1.28732 0.530301 0
M  V30 2 S -3.32853 -0.265318 0.063362 0
M  V30 3 O -2.85123 -0.201111 -1.3808 0
M  V30 4 O -4.34473 -1.2912 0.214871 0
M  V30 5 O -1.92838 -0.663941 1.04335 0
M  V30 6 C -1.12905 -1.40299 0.18901 0
M  V30 7 C 0.0306013 -0.676721 -0.36662 0
M  V30 8 C 1.36808 -0.835701 0.281231 0
M  V30 9 O 2.28842 -0.512887 -0.789771 0
M  V30 10 S 3.12523 0.855974 -0.596584 0
M  V30 11 N 3.49199 1.29485 1.02012 0
M  V30 12 O 2.25776 2.0351 -1.16587 0
M  V30 13 O 4.40618 0.810486 -1.37385 0
M  V30 14 H -4.87775 1.32343 0.240142 0
M  V30 15 H -3.31909 2.04239 0.099071 0
M  V30 16 H -0.625763 -2.18527 0.940262 0
M  V30 17 H -1.64424 -2.02868 -0.509147 0
M  V30 18 H -0.236567 0.483092 -0.00882816 0
M  V30 19 H -0.0483361 -0.572711 -1.4315 0
M  V30 20 H 1.46861 -1.99343 0.351357 0
M  V30 21 H 1.54597 -0.399756 1.18918 0
M  V30 22 H 3.95051 2.24941 0.956005 0
M  V30 23 H 4.27995 0.647679 1.36 0
M  V30 END ATOM
M  V30 BEGIN BOND
M  V30 1 1 1 2
M  V30 2 2 2 3
M  V30 3 2 2 4
M  V30 4 1 2 5
M  V30 5 1 5 6
M  V30 6 1 6 7
M  V30 7 1 7 8
M  V30 8 1 8 9
M  V30 9 1 9 10
M  V30 10 1 10 11
M  V30 11 2 10 12
M  V30 12 2 10 13
M  V30 13 1 1 14
M  V30 14 1 1 15
M  V30 15 1 6 16
M  V30 16 1 6 17
M  V30 17 1 7 18
M  V30 18 1 7 19
M  V30 19 1 8 20
M  V30 20 1 8 21
M  V30 21 1 11 22
M  V30 22 1 11 23
M  V30 END BOND
M  V30 END CTAB
M  END
