
     RDKit          3D

  0  0  0  0  0  0  0  0  0  0999 V3000
M  V30 BEGIN CTAB
M  V30 COUNTS 38 39 0 0 0
M  V30 BEGIN ATOM
M  V30 1 N -4.3022 -2.22357 -1.29798 0
M  V30 2 C -3.28372 -1.44037 -0.684258 0
M  V30 3 N -3.54327 -0.23782 -0.141567 0
M  V30 4 C -2.5732 0.488263 0.433094 0
M  V30 5 C -1.25281 0.0274388 0.492761 0
M  V30 6 C -0.995158 -1.19924 -0.0623794 0
M  V30 7 N -2.01893 -1.88361 -0.628017 0
M  V30 8 C 0.350474 -1.73141 -0.0327681 0
M  V30 9 O 0.566212 -2.88283 -0.559877 0
M  V30 10 N 1.44401 -1.05019 0.546878 0
M  V30 11 C 2.78209 -1.62068 0.555652 0
M  V30 12 C 3.74286 -0.74444 -0.207957 0
M  V30 13 N 4.9697 -0.377406 0.146501 0
M  V30 14 N 5.64845 0.367042 -0.612175 0
M  V30 15 C 5.13656 0.784095 -1.76565 0
M  V30 16 S 3.58785 0.0390368 -1.71625 0
M  V30 17 N 5.73329 1.62818 -2.76694 0
M  V30 18 C 3.22074 -1.75642 1.98985 0
M  V30 19 C -2.89951 1.81992 1.02549 0
M  V30 20 C -3.86962 1.64495 2.17439 0
M  V30 21 C -3.44148 2.77885 -0.0134536 0
M  V30 22 H -4.83418 -2.88948 -0.690617 0
M  V30 23 H -4.5399 -2.16773 -2.30339 0
M  V30 24 H -0.513987 0.664623 0.972405 0
M  V30 25 H 1.28914 -0.12215 0.975931 0
M  V30 26 H 2.76021 -2.60879 0.0578287 0
M  V30 27 H 6.28145 1.21653 -3.55348 0
M  V30 28 H 5.64455 2.66768 -2.7488 0
M  V30 29 H 4.32851 -1.70357 2.07747 0
M  V30 30 H 2.74885 -0.942275 2.59117 0
M  V30 31 H 2.80779 -2.70942 2.37285 0
M  V30 32 H -1.98384 2.27427 1.45235 0
M  V30 33 H -3.68752 2.47165 2.91666 0
M  V30 34 H -3.65265 0.712378 2.70502 0
M  V30 35 H -4.89017 1.74898 1.79968 0
M  V30 36 H -2.67343 3.48302 -0.387821 0
M  V30 37 H -3.74135 2.15248 -0.896378 0
M  V30 38 H -4.34582 3.32201 0.3722 0
M  V30 END ATOM
M  V30 BEGIN BOND
M  V30 1 1 1 2
M  V30 2 2 2 3
M  V30 3 1 3 4
M  V30 4 2 4 5
M  V30 5 1 5 6
M  V30 6 2 6 7
M  V30 7 1 6 8
M  V30 8 2 8 9
M  V30 9 1 8 10
M  V30 10 1 10 11
M  V30 11 1 11 12
M  V30 12 2 12 13
M  V30 13 1 13 14
M  V30 14 2 14 15
M  V30 15 1 15 16
M  V30 16 1 15 17
M  V30 17 1 11 18
M  V30 18 1 4 19
M  V30 19 1 19 20
M  V30 20 1 19 21
M  V30 21 1 7 2
M  V30 22 1 16 12
M  V30 23 1 1 22
M  V30 24 1 1 23
M  V30 25 1 5 24
M  V30 26 1 10 25
M  V30 27 1 11 26
M  V30 28 1 17 27
M  V30 29 1 17 28
M  V30 30 1 18 29
M  V30 31 1 18 30
M  V30 32 1 18 31
M  V30 33 1 19 32
M  V30 34 1 20 33
M  V30 35 1 20 34
M  V30 36 1 20 35
M  V30 37 1 21 36
M  V30 38 1 21 37
M  V30 39 1 21 38
M  V30 END BOND
M  V30 END CTAB
M  END
