
     RDKit          3D

  0  0  0  0  0  0  0  0  0  0999 V3000
M  V30 BEGIN CTAB
M  V30 COUNTS 25 25 0 0 0
M  V30 BEGIN ATOM
M  V30 1 C 2.42668 0.57853 -0.365668 0
M  V30 2 C 2.71645 -0.488917 0.625924 0
M  V30 3 C 1.58364 -0.73223 1.55658 0
M  V30 4 N 0.403515 -1.14474 0.877813 0
M  V30 5 C -0.639536 -0.338509 0.369029 0
M  V30 6 N -0.716829 0.993354 0.52177 0
M  V30 7 C -1.70565 1.76179 0.0826913 0
M  V30 8 N -1.76182 3.16758 0.258095 0
M  V30 9 N -2.73635 1.18203 -0.578063 0
M  V30 10 C -2.76732 -0.149007 -0.791137 0
M  V30 11 C -1.71668 -0.904468 -0.315644 0
M  V30 12 N -1.73182 -2.29399 -0.529024 0
M  V30 13 H 1.65823 0.298636 -1.11262 0
M  V30 14 H 2.15222 1.56322 0.0629815 0
M  V30 15 H 3.36578 0.724664 -0.986133 0
M  V30 16 H 3.68858 -0.325949 1.14989 0
M  V30 17 H 2.82345 -1.44805 0.0206809 0
M  V30 18 H 1.8892 -1.5511 2.25948 0
M  V30 19 H 1.41862 0.191778 2.18208 0
M  V30 20 H 0.254145 -2.2015 0.71424 0
M  V30 21 H -2.17785 3.6502 1.08037 0
M  V30 22 H -1.35532 3.76221 -0.494127 0
M  V30 23 H -3.60093 -0.589748 -1.32139 0
M  V30 24 H -1.85228 -2.74098 -1.46332 0
M  V30 25 H -1.61813 -2.96479 0.274175 0
M  V30 END ATOM
M  V30 BEGIN BOND
M  V30 1 1 1 2
M  V30 2 1 2 3
M  V30 3 1 3 4
M  V30 4 1 4 5
M  V30 5 2 5 6
M  V30 6 1 6 7
M  V30 7 1 7 8
M  V30 8 2 7 9
M  V30 9 1 9 10
M  V30 10 2 10 11
M  V30 11 1 11 12
M  V30 12 1 11 5
M  V30 13 1 1 13
M  V30 14 1 1 14
M  V30 15 1 1 15
M  V30 16 1 2 16
M  V30 17 1 2 17
M  V30 18 1 3 18
M  V30 19 1 3 19
M  V30 20 1 4 20
M  V30 21 1 8 21
M  V30 22 1 8 22
M  V30 23 1 10 23
M  V30 24 1 12 24
M  V30 25 1 12 25
M  V30 END BOND
M  V30 END CTAB
M  END
