
     RDKit          3D

  0  0  0  0  0  0  0  0  0  0999 V3000
M  V30 BEGIN CTAB
M  V30 COUNTS 23 23 0 0 0
M  V30 BEGIN ATOM
M  V30 1 N 0.720464 2.06864 -1.10112 0
M  V30 2 C 0.0056373 0.983173 -0.507352 0
M  V30 3 C 0.645721 -0.151392 -0.0534605 0
M  V30 4 C -0.0391917 -1.20884 0.523671 0
M  V30 5 C -1.40824 -1.15644 0.663821 0
M  V30 6 C -2.05866 -0.0304718 0.215143 0
M  V30 7 C -1.36503 1.02982 -0.364365 0
M  V30 8 N -2.03213 2.19564 -0.82948 0 CHG=1
M  V30 9 O -1.42653 3.41242 -0.887754 0 CHG=-1
M  V30 10 O -3.223 2.12325 -1.20492 0
M  V30 11 N -2.13516 -2.24116 1.25866 0 CHG=1
M  V30 12 O -3.49684 -2.20068 1.40354 0 CHG=-1
M  V30 13 O -1.55835 -3.26295 1.66712 0
M  V30 14 S 2.3822 -0.21735 -0.231454 0
M  V30 15 N 3.03151 -1.69034 0.379598 0
M  V30 16 O 2.70808 -0.0867825 -1.70717 0
M  V30 17 O 3.02358 0.919213 0.51926 0
M  V30 18 H 1.0068 2.90078 -0.509563 0
M  V30 19 H 0.969313 2.05983 -2.11479 0
M  V30 20 H 0.458323 -2.10167 0.881777 0
M  V30 21 H -3.12184 0.00802312 0.324997 0
M  V30 22 H 2.85099 -1.70887 1.41574 0
M  V30 23 H 4.06236 -1.64385 0.258107 0
M  V30 END ATOM
M  V30 BEGIN BOND
M  V30 1 1 1 2
M  V30 2 2 2 3
M  V30 3 1 3 4
M  V30 4 2 4 5
M  V30 5 1 5 6
M  V30 6 2 6 7
M  V30 7 1 7 8
M  V30 8 1 8 9
M  V30 9 2 8 10
M  V30 10 1 5 11
M  V30 11 1 11 12
M  V30 12 2 11 13
M  V30 13 1 3 14
M  V30 14 1 14 15
M  V30 15 2 14 16
M  V30 16 2 14 17
M  V30 17 1 7 2
M  V30 18 1 1 18
M  V30 19 1 1 19
M  V30 20 1 4 20
M  V30 21 1 6 21
M  V30 22 1 15 22
M  V30 23 1 15 23
M  V30 END BOND
M  V30 END CTAB
M  END
