
     RDKit          3D

  0  0  0  0  0  0  0  0  0  0999 V3000
M  V30 BEGIN CTAB
M  V30 COUNTS 27 26 0 0 0
M  V30 BEGIN ATOM
M  V30 1 N 3.44717 -0.173632 0.450693 0
M  V30 2 C 2.01301 -0.263504 0.75525 0
M  V30 3 C 1.33142 -0.404698 -0.544145 0
M  V30 4 C -0.123719 -0.536933 -0.602584 0
M  V30 5 C -0.999248 0.51289 -0.0782061 0
M  V30 6 N -0.799627 0.747518 1.33579 0
M  V30 7 C -2.44906 0.0703869 -0.337932 0
M  V30 8 C -0.867838 1.85657 -0.757256 0
M  V30 9 C -0.543877 -1.85332 0.0750831 0
M  V30 10 H 4.00547 0.135964 1.24508 0
M  V30 11 H 3.62777 0.278496 -0.452732 0
M  V30 12 H 1.71711 0.59182 1.39223 0
M  V30 13 H 1.89669 -1.17543 1.37785 0
M  V30 14 H 1.75741 -1.34037 -1.0248 0
M  V30 15 H 1.69391 0.398803 -1.24064 0
M  V30 16 H -0.386867 -0.726935 -1.68979 0
M  V30 17 H -1.04294 1.73126 1.58895 0
M  V30 18 H -1.37484 0.0716762 1.90557 0
M  V30 19 H -2.74876 -0.623218 0.449431 0
M  V30 20 H -2.44625 -0.448435 -1.30221 0
M  V30 21 H -3.11484 0.952038 -0.435049 0
M  V30 22 H -0.0640951 2.4738 -0.304218 0
M  V30 23 H -0.787013 1.75829 -1.8515 0
M  V30 24 H -1.8151 2.41026 -0.537956 0
M  V30 25 H -0.529068 -1.72023 1.17564 0
M  V30 26 H -1.54844 -2.08483 -0.314849 0
M  V30 27 H 0.151622 -2.63825 -0.277687 0
M  V30 END ATOM
M  V30 BEGIN BOND
M  V30 1 1 1 2
M  V30 2 1 2 3
M  V30 3 1 3 4
M  V30 4 1 4 5
M  V30 5 1 5 6
M  V30 6 1 5 7
M  V30 7 1 5 8
M  V30 8 1 4 9
M  V30 9 1 1 10
M  V30 10 1 1 11
M  V30 11 1 2 12
M  V30 12 1 2 13
M  V30 13 1 3 14
M  V30 14 1 3 15
M  V30 15 1 4 16
M  V30 16 1 6 17
M  V30 17 1 6 18
M  V30 18 1 7 19
M  V30 19 1 7 20
M  V30 20 1 7 21
M  V30 21 1 8 22
M  V30 22 1 8 23
M  V30 23 1 8 24
M  V30 24 1 9 25
M  V30 25 1 9 26
M  V30 26 1 9 27
M  V30 END BOND
M  V30 END CTAB
M  END
