
     RDKit          3D

  0  0  0  0  0  0  0  0  0  0999 V3000
M  V30 BEGIN CTAB
M  V30 COUNTS 23 24 0 0 0
M  V30 BEGIN ATOM
M  V30 1 N 5.3134 0.100014 -0.19145 0
M  V30 2 C 4.19352 -0.223847 -0.152892 0
M  V30 3 C 2.81851 -0.62154 -0.0831468 0
M  V30 4 C 2.26336 -1.87714 -0.190557 0
M  V30 5 N 0.915889 -1.7459 -0.0576978 0
M  V30 6 N 0.609652 -0.472767 0.126429 0
M  V30 7 C 1.75111 0.236217 0.115424 0
M  V30 8 N 1.86759 1.65263 0.280715 0
M  V30 9 C -0.706676 0.0733064 0.307961 0
M  V30 10 N -0.93604 1.08179 1.16671 0
M  V30 11 C -2.16278 1.60417 1.3481 0
M  V30 12 C -3.19919 1.05871 0.607706 0
M  V30 13 C -3.00577 0.025354 -0.282109 0
M  V30 14 C -1.73035 -0.477476 -0.434221 0
M  V30 15 N -1.47226 -1.54833 -1.34263 0
M  V30 16 H 2.82542 -2.76829 -0.349526 0
M  V30 17 H 1.97648 2.03419 1.24837 0
M  V30 18 H 1.83819 2.23131 -0.568627 0
M  V30 19 H -2.38358 2.40404 2.01994 0
M  V30 20 H -4.20767 1.45527 0.727041 0
M  V30 21 H -3.80987 -0.407695 -0.865461 0
M  V30 22 H -1.33828 -2.52854 -1.07299 0
M  V30 23 H -1.42067 -1.28548 -2.35707 0
M  V30 END ATOM
M  V30 BEGIN BOND
M  V30 1 3 1 2
M  V30 2 1 2 3
M  V30 3 1 3 4
M  V30 4 2 4 5
M  V30 5 1 5 6
M  V30 6 1 6 7
M  V30 7 1 7 8
M  V30 8 1 6 9
M  V30 9 2 9 10
M  V30 10 1 10 11
M  V30 11 2 11 12
M  V30 12 1 12 13
M  V30 13 2 13 14
M  V30 14 1 14 15
M  V30 15 2 7 3
M  V30 16 1 14 9
M  V30 17 1 4 16
M  V30 18 1 8 17
M  V30 19 1 8 18
M  V30 20 1 11 19
M  V30 21 1 12 20
M  V30 22 1 13 21
M  V30 23 1 15 22
M  V30 24 1 15 23
M  V30 END BOND
M  V30 END CTAB
M  END
