
     RDKit          3D

  0  0  0  0  0  0  0  0  0  0999 V3000
M  V30 BEGIN CTAB
M  V30 COUNTS 38 40 0 0 0
M  V30 BEGIN ATOM
M  V30 1 O -0.368344 -1.8355 0.157591 0
M  V30 2 C -0.632588 -1.04497 -0.769174 0
M  V30 3 C 0.287859 -0.820859 -1.88029 0
M  V30 4 C 0.333794 0.652182 -2.23862 0
M  V30 5 C -1.03393 1.19389 -2.57156 0
M  V30 6 C -2.16921 0.340892 -2.0515 0
M  V30 7 N -1.85723 -0.304703 -0.803171 0
M  V30 8 C -2.73503 -0.184526 0.293742 0
M  V30 9 C -4.00757 -0.766187 0.282069 0
M  V30 10 C -4.8897 -0.671972 1.32983 0
M  V30 11 C -4.51986 0.0258163 2.45618 0
M  V30 12 C -3.26074 0.605195 2.47626 0
M  V30 13 C -2.37283 0.512883 1.42664 0
M  V30 14 F -1.15359 1.1122 1.526 0
M  V30 15 S 1.90792 -1.51556 -1.73814 0
M  V30 16 C 2.94682 -0.870793 -0.479349 0
M  V30 17 N 2.95614 -1.40747 0.744597 0
M  V30 18 C 3.76563 -0.918537 1.73052 0
M  V30 19 N 3.80638 -1.46369 3.03798 0
M  V30 20 N 4.573 0.133073 1.45489 0
M  V30 21 C 4.57077 0.678504 0.230666 0
M  V30 22 N 3.75223 0.166216 -0.727259 0
M  V30 23 N 5.43457 1.78129 -0.0105739 0
M  V30 24 H -0.18716 -1.30477 -2.79485 0
M  V30 25 H 0.96694 0.735411 -3.16438 0
M  V30 26 H 0.831442 1.25021 -1.46242 0
M  V30 27 H -1.14944 2.21559 -2.20461 0
M  V30 28 H -1.16581 1.23152 -3.68584 0
M  V30 29 H -2.4647 -0.42717 -2.81708 0
M  V30 30 H -3.02886 1.01779 -1.89291 0
M  V30 31 H -4.31666 -1.31487 -0.58663 0
M  V30 32 H -5.85694 -1.14917 1.2441 0
M  V30 33 H -5.20175 0.114493 3.30079 0
M  V30 34 H -2.94394 1.1678 3.36718 0
M  V30 35 H 4.69586 -1.55426 3.57234 0
M  V30 36 H 2.91683 -1.78007 3.46962 0
M  V30 37 H 5.14714 2.78362 0.14754 0
M  V30 38 H 6.42256 1.61651 -0.370157 0
M  V30 END ATOM
M  V30 BEGIN BOND
M  V30 1 2 1 2
M  V30 2 1 2 3
M  V30 3 1 3 4
M  V30 4 1 4 5
M  V30 5 1 5 6
M  V30 6 1 6 7
M  V30 7 1 7 8
M  V30 8 2 8 9
M  V30 9 1 9 10
M  V30 10 2 10 11
M  V30 11 1 11 12
M  V30 12 2 12 13
M  V30 13 1 13 14
M  V30 14 1 3 15
M  V30 15 1 15 16
M  V30 16 2 16 17
M  V30 17 1 17 18
M  V30 18 1 18 19
M  V30 19 2 18 20
M  V30 20 1 20 21
M  V30 21 2 21 22
M  V30 22 1 21 23
M  V30 23 1 7 2
M  V30 24 1 13 8
M  V30 25 1 22 16
M  V30 26 1 3 24
M  V30 27 1 4 25
M  V30 28 1 4 26
M  V30 29 1 5 27
M  V30 30 1 5 28
M  V30 31 1 6 29
M  V30 32 1 6 30
M  V30 33 1 9 31
M  V30 34 1 10 32
M  V30 35 1 11 33
M  V30 36 1 12 34
M  V30 37 1 19 35
M  V30 38 1 19 36
M  V30 39 1 23 37
M  V30 40 1 23 38
M  V30 END BOND
M  V30 END CTAB
M  END
