
     RDKit          3D

  0  0  0  0  0  0  0  0  0  0999 V3000
M  V30 BEGIN CTAB
M  V30 COUNTS 80 82 0 0 0
M  V30 BEGIN ATOM
M  V30 1 C 3.51861 -4.24344 -0.711985 0
M  V30 2 N 2.59254 -3.14063 -0.695828 0
M  V30 3 C 3.24743 -2.0114 -0.0537421 0 CFG=1
M  V30 4 C 4.44936 -1.66588 -0.94323 0 CFG=2
M  V30 5 O 5.46164 -1.26272 -0.0593207 0
M  V30 6 C 4.11814 -0.487592 -1.81078 0 CFG=1
M  V30 7 O 4.88008 -0.63648 -2.99371 0
M  V30 8 C 2.69165 -0.381897 -2.22315 0 CFG=2
M  V30 9 C 2.46408 1.03284 -2.75869 0
M  V30 10 O 2.54123 1.97459 -1.7333 0
M  V30 11 O 1.75991 -0.72831 -1.27694 0
M  V30 12 C 2.39634 -0.796646 -0.00969539 0 CFG=1
M  V30 13 O 1.48204 -0.700707 1.00202 0
M  V30 14 C 1.53707 0.522271 1.61333 0 CFG=2
M  V30 15 C 1.68518 0.539181 3.10448 0 CFG=1
M  V30 16 C 3.0731 0.472028 3.6379 0
M  V30 17 O 3.69349 -0.689224 3.24738 0
M  V30 18 C 1.02976 1.87506 3.46904 0 CFG=2
M  V30 19 C 0.100147 1.7328 4.63083 0
M  V30 20 O 0.429729 2.37501 2.32475 0
M  V30 21 C 0.187372 1.23754 1.52428 0 CFG=1
M  V30 22 O -0.197286 1.54824 0.265919 0
M  V30 23 C -1.50025 1.10661 0.0448944 0 CFG=1
M  V30 24 C -2.31373 2.40375 -0.132045 0 CFG=2
M  V30 25 O -1.99178 3.27046 0.911445 0
M  V30 26 C -3.76012 1.97574 -0.0534133 0 CFG=1
M  V30 27 O -4.62802 3.04463 0.0893904 0
M  V30 28 C -4.08613 1.1192 -1.2496 0 CFG=2
M  V30 29 N -4.97462 0.0487714 -0.842348 0
M  V30 30 C -6.24672 0.327083 -0.273597 0
M  V30 31 N -7.3237 0.646149 -1.14339 0
M  V30 32 N -6.44367 0.297938 0.982221 0
M  V30 33 C -2.90427 0.652092 -2.00706 0 CFG=1
M  V30 34 O -2.58783 1.54056 -3.03297 0
M  V30 35 C -1.70767 0.284674 -1.17225 0 CFG=2
M  V30 36 N -1.71402 -1.15116 -0.852144 0
M  V30 37 C -1.88642 -2.17084 -1.80501 0
M  V30 38 N -2.63595 -3.3206 -1.46007 0
M  V30 39 N -1.37889 -2.08357 -2.98308 0
M  V30 40 H 3.88658 -4.47874 -1.73646 0
M  V30 41 H 3.05722 -5.17307 -0.315882 0
M  V30 42 H 4.39629 -4.03402 -0.0946984 0
M  V30 43 H 2.29401 -2.95998 -1.6564 0
M  V30 44 H 3.53592 -2.31973 0.94653 0
M  V30 45 H 4.77405 -2.56207 -1.52497 0
M  V30 46 H 6.09806 -1.98414 0.117702 0
M  V30 47 H 4.50865 0.472092 -1.36018 0
M  V30 48 H 5.81298 -0.417224 -2.74752 0
M  V30 49 H 2.54647 -1.05758 -3.10693 0
M  V30 50 H 3.27702 1.26491 -3.4767 0
M  V30 51 H 1.4853 1.1414 -3.24052 0
M  V30 52 H 3.09021 2.75179 -1.9501 0
M  V30 53 H 3.02412 0.12971 -0.00517508 0
M  V30 54 H 2.31704 1.19434 1.16594 0
M  V30 55 H 1.03445 -0.287038 3.49286 0
M  V30 56 H 3.67169 1.38389 3.41196 0
M  V30 57 H 2.98027 0.413657 4.75953 0
M  V30 58 H 4.10668 -1.1845 4.001 0
M  V30 59 H 1.86293 2.5698 3.74454 0
M  V30 60 H 0.710905 1.89408 5.56269 0
M  V30 61 H -0.644348 2.55288 4.583 0
M  V30 62 H -0.350645 0.730272 4.73433 0
M  V30 63 H -0.530649 0.644267 2.12602 0
M  V30 64 H -1.86758 0.599672 0.961499 0
M  V30 65 H -2.05904 2.90792 -1.06159 0
M  V30 66 H -1.9465 4.19288 0.596873 0
M  V30 67 H -3.86373 1.3505 0.864932 0
M  V30 68 H -4.73907 3.30936 1.05598 0
M  V30 69 H -4.69887 1.76936 -1.9391 0
M  V30 70 H -4.65336 -0.921326 -0.978926 0
M  V30 71 H -8.27587 0.241387 -1.03276 0
M  V30 72 H -7.1685 1.30865 -1.92543 0
M  V30 73 H -7.363 0.498997 1.3939 0
M  V30 74 H -3.20619 -0.299897 -2.53792 0
M  V30 75 H -2.40231 1.08957 -3.89379 0
M  V30 76 H -0.823125 0.42777 -1.83904 0
M  V30 77 H -1.58232 -1.42165 0.142867 0
M  V30 78 H -2.28192 -4.05462 -0.829033 0
M  V30 79 H -3.58502 -3.42709 -1.86225 0
M  V30 80 H -1.48663 -2.81261 -3.70408 0
M  V30 END ATOM
M  V30 BEGIN BOND
M  V30 1 1 1 2
M  V30 2 1 2 3
M  V30 3 1 3 4
M  V30 4 1 4 5
M  V30 5 1 4 6
M  V30 6 1 6 7
M  V30 7 1 6 8
M  V30 8 1 8 9
M  V30 9 1 9 10
M  V30 10 1 8 11
M  V30 11 1 11 12
M  V30 12 1 12 13
M  V30 13 1 13 14
M  V30 14 1 14 15
M  V30 15 1 15 16
M  V30 16 1 16 17
M  V30 17 1 15 18
M  V30 18 1 18 19
M  V30 19 1 18 20
M  V30 20 1 20 21
M  V30 21 1 21 22
M  V30 22 1 22 23
M  V30 23 1 23 24
M  V30 24 1 24 25
M  V30 25 1 24 26
M  V30 26 1 26 27
M  V30 27 1 26 28
M  V30 28 1 28 29
M  V30 29 1 29 30
M  V30 30 1 30 31
M  V30 31 2 30 32 CFG=2
M  V30 32 1 28 33
M  V30 33 1 33 34
M  V30 34 1 33 35
M  V30 35 1 35 36
M  V30 36 1 36 37
M  V30 37 1 37 38
M  V30 38 2 37 39 CFG=2
M  V30 39 1 12 3
M  V30 40 1 21 14
M  V30 41 1 35 23
M  V30 42 1 1 40
M  V30 43 1 1 41
M  V30 44 1 1 42
M  V30 45 1 2 43
M  V30 46 1 3 44 CFG=1
M  V30 47 1 4 45 CFG=3
M  V30 48 1 5 46
M  V30 49 1 6 47 CFG=1
M  V30 50 1 7 48
M  V30 51 1 8 49 CFG=3
M  V30 52 1 9 50
M  V30 53 1 9 51
M  V30 54 1 10 52
M  V30 55 1 12 53 CFG=1
M  V30 56 1 14 54 CFG=3
M  V30 57 1 15 55 CFG=1
M  V30 58 1 16 56
M  V30 59 1 16 57
M  V30 60 1 17 58
M  V30 61 1 18 59 CFG=1
M  V30 62 1 19 60
M  V30 63 1 19 61
M  V30 64 1 19 62
M  V30 65 1 21 63 CFG=1
M  V30 66 1 23 64 CFG=1
M  V30 67 1 24 65 CFG=3
M  V30 68 1 25 66
M  V30 69 1 26 67 CFG=1
M  V30 70 1 27 68
M  V30 71 1 28 69 CFG=3
M  V30 72 1 29 70
M  V30 73 1 31 71
M  V30 74 1 31 72
M  V30 75 1 32 73
M  V30 76 1 33 74 CFG=3
M  V30 77 1 34 75
M  V30 78 1 35 76 CFG=3
M  V30 79 1 36 77
M  V30 80 1 38 78
M  V30 81 1 38 79
M  V30 82 1 39 80
M  V30 END BOND
M  V30 END CTAB
M  END
