
     RDKit          3D

  0  0  0  0  0  0  0  0  0  0999 V3000
M  V30 BEGIN CTAB
M  V30 COUNTS 44 46 0 0 0
M  V30 BEGIN ATOM
M  V30 1 C -4.83616 2.23792 -0.443366 0
M  V30 2 C -5.14745 0.863157 0.103855 0
M  V30 3 N -4.03692 0.393041 0.911574 0
M  V30 4 C -3.8509 0.589322 2.2333 0
M  V30 5 N -2.72163 0.00933729 2.61561 0
M  V30 6 N -2.2092 -0.542792 1.54273 0
M  V30 7 C -3.00459 -0.325247 0.449724 0
M  V30 8 C -2.72685 -0.807891 -0.923597 0
M  V30 9 C -1.91395 0.12169 -1.75863 0
M  V30 10 N -0.61612 0.427809 -1.23397 0
M  V30 11 C 0.383486 -0.550214 -1.00935 0
M  V30 12 C 1.62406 -0.194212 -0.494805 0
M  V30 13 C 2.62767 -1.10913 -0.261106 0
M  V30 14 N 2.33792 -2.38793 -0.562749 0
M  V30 15 C 1.1661 -2.78413 -1.05787 0
M  V30 16 N 0.225907 -1.85871 -1.26644 0
M  V30 17 N 0.860982 -4.13608 -1.3763 0
M  V30 18 C 3.93958 -0.789744 0.27441 0
M  V30 19 C 4.6128 0.276895 -0.600641 0
M  V30 20 C 4.93785 1.06694 0.629536 0
M  V30 21 C 4.02293 0.165995 1.41715 0
M  V30 22 N 4.44636 2.42914 0.654917 0
M  V30 23 H -5.53264 2.98786 -0.0206803 0
M  V30 24 H -3.81254 2.55707 -0.0968004 0
M  V30 25 H -4.81195 2.22826 -1.53541 0
M  V30 26 H -5.31803 0.149593 -0.716461 0
M  V30 27 H -6.04018 0.873614 0.765173 0
M  V30 28 H -4.54273 1.14813 2.8768 0
M  V30 29 H -3.72941 -0.888548 -1.43833 0
M  V30 30 H -2.33176 -1.84268 -0.934209 0
M  V30 31 H -2.47399 1.01719 -2.07658 0
M  V30 32 H -1.72588 -0.433902 -2.73159 0
M  V30 33 H -0.391823 1.41862 -1.00463 0
M  V30 34 H 1.82597 0.83514 -0.263632 0
M  V30 35 H 1.46426 -4.64079 -2.05621 0
M  V30 36 H 0.0370369 -4.64295 -0.940607 0
M  V30 37 H 4.59197 -1.67742 0.381736 0
M  V30 38 H 5.47408 -0.13616 -1.16257 0
M  V30 39 H 3.91724 0.787693 -1.2933 0
M  V30 40 H 6.01534 0.97536 0.903856 0
M  V30 41 H 4.56652 -0.281542 2.27761 0
M  V30 42 H 3.09033 0.623124 1.76915 0
M  V30 43 H 5.0783 2.95248 1.31921 0
M  V30 44 H 4.52805 2.89469 -0.290791 0
M  V30 END ATOM
M  V30 BEGIN BOND
M  V30 1 1 1 2
M  V30 2 1 2 3
M  V30 3 1 3 4
M  V30 4 2 4 5
M  V30 5 1 5 6
M  V30 6 2 6 7
M  V30 7 1 7 8
M  V30 8 1 8 9
M  V30 9 1 9 10
M  V30 10 1 10 11
M  V30 11 2 11 12
M  V30 12 1 12 13
M  V30 13 2 13 14
M  V30 14 1 14 15
M  V30 15 2 15 16
M  V30 16 1 15 17
M  V30 17 1 13 18
M  V30 18 1 18 19
M  V30 19 1 19 20
M  V30 20 1 20 21
M  V30 21 1 20 22
M  V30 22 1 7 3
M  V30 23 1 16 11
M  V30 24 1 21 18
M  V30 25 1 1 23
M  V30 26 1 1 24
M  V30 27 1 1 25
M  V30 28 1 2 26
M  V30 29 1 2 27
M  V30 30 1 4 28
M  V30 31 1 8 29
M  V30 32 1 8 30
M  V30 33 1 9 31
M  V30 34 1 9 32
M  V30 35 1 10 33
M  V30 36 1 12 34
M  V30 37 1 17 35
M  V30 38 1 17 36
M  V30 39 1 18 37
M  V30 40 1 19 38
M  V30 41 1 19 39
M  V30 42 1 20 40
M  V30 43 1 21 41
M  V30 44 1 21 42
M  V30 45 1 22 43
M  V30 46 1 22 44
M  V30 END BOND
M  V30 END CTAB
M  END
