
     RDKit          3D

  0  0  0  0  0  0  0  0  0  0999 V3000
M  V30 BEGIN CTAB
M  V30 COUNTS 19 19 0 0 0
M  V30 BEGIN ATOM
M  V30 1 N -1.62517 -1.96364 0.343343 0
M  V30 2 C -0.756669 -0.846538 0.144761 0
M  V30 3 C 0.623324 -0.975246 0.235948 0
M  V30 4 C 1.44602 0.115762 0.0408343 0
M  V30 5 C 2.92755 0.0199892 0.129686 0
M  V30 6 C 0.83513 1.32362 -0.245406 0
M  V30 7 C -0.531942 1.45884 -0.337387 0
M  V30 8 C -1.36721 0.362094 -0.141629 0
M  V30 9 N -2.77066 0.456018 -0.226428 0
M  V30 10 Cl -1.26003 3.00966 -0.702266 0
M  V30 11 Cl 1.88665 2.71384 -0.493853 0
M  V30 12 H -2.10358 -2.01326 1.26903 0
M  V30 13 H -1.80872 -2.70411 -0.3424 0
M  V30 14 H 1.03835 -1.94746 0.462822 0
M  V30 15 H 3.31942 0.255605 1.12384 0
M  V30 16 H 3.42119 0.729932 -0.587549 0
M  V30 17 H 3.29315 -0.988468 -0.170145 0
M  V30 18 H -3.30504 -0.158281 -0.854134 0
M  V30 19 H -3.26178 1.15165 0.350938 0
M  V30 END ATOM
M  V30 BEGIN BOND
M  V30 1 1 1 2
M  V30 2 2 2 3
M  V30 3 1 3 4
M  V30 4 1 4 5
M  V30 5 2 4 6
M  V30 6 1 6 7
M  V30 7 2 7 8
M  V30 8 1 8 9
M  V30 9 1 7 10
M  V30 10 1 6 11
M  V30 11 1 8 2
M  V30 12 1 1 12
M  V30 13 1 1 13
M  V30 14 1 3 14
M  V30 15 1 5 15
M  V30 16 1 5 16
M  V30 17 1 5 17
M  V30 18 1 9 18
M  V30 19 1 9 19
M  V30 END BOND
M  V30 END CTAB
M  END
