
     RDKit          3D

  0  0  0  0  0  0  0  0  0  0999 V3000
M  V30 BEGIN CTAB
M  V30 COUNTS 18 18 0 0 0
M  V30 BEGIN ATOM
M  V30 1 N 2.86804 -0.272599 0.214657 0
M  V30 2 C 1.45453 -0.172448 0.111025 0
M  V30 3 C 0.675241 -1.29525 0.192015 0
M  V30 4 C -0.714558 -1.15412 0.0851546 0
M  V30 5 O -1.51366 -2.27372 0.164498 0
M  V30 6 C -1.3053 0.0688399 -0.0966144 0
M  V30 7 N -2.71501 0.140451 -0.196629 0
M  V30 8 C -0.52799 1.20245 -0.179002 0
M  V30 9 C 0.861992 1.05891 -0.0718442 0
M  V30 10 O 1.70581 2.16459 -0.146636 0
M  V30 11 H 3.37609 0.102184 1.0606 0
M  V30 12 H 3.47234 -0.70904 -0.515955 0
M  V30 13 H 1.10943 -2.27393 0.334985 0
M  V30 14 H -2.50728 -2.17632 0.0885101 0
M  V30 15 H -3.33874 0.218883 0.660158 0
M  V30 16 H -3.24195 0.122089 -1.10427 0
M  V30 17 H -0.945467 2.17022 -0.319606 0
M  V30 18 H 1.28649 3.07881 -0.281045 0
M  V30 END ATOM
M  V30 BEGIN BOND
M  V30 1 1 1 2
M  V30 2 2 2 3
M  V30 3 1 3 4
M  V30 4 1 4 5
M  V30 5 2 4 6
M  V30 6 1 6 7
M  V30 7 1 6 8
M  V30 8 2 8 9
M  V30 9 1 9 10
M  V30 10 1 9 2
M  V30 11 1 1 11
M  V30 12 1 1 12
M  V30 13 1 3 13
M  V30 14 1 5 14
M  V30 15 1 7 15
M  V30 16 1 7 16
M  V30 17 1 8 17
M  V30 18 1 10 18
M  V30 END BOND
M  V30 END CTAB
M  END
