
     RDKit          3D

  0  0  0  0  0  0  0  0  0  0999 V3000
M  V30 BEGIN CTAB
M  V30 COUNTS 26 28 0 0 0
M  V30 BEGIN ATOM
M  V30 1 N 5.14343 0.822234 0.0214949 0
M  V30 2 C 3.84166 0.274988 -0.0854984 0
M  V30 3 C 3.65389 -1.09415 -0.301448 0
M  V30 4 C 2.37349 -1.56779 -0.396625 0
M  V30 5 C 1.23926 -0.767176 -0.291294 0
M  V30 6 N -0.0138225 -1.3781 -0.407371 0 RAD=2 VAL=2
M  V30 7 C -1.26566 -0.73597 -0.328673 0
M  V30 8 C -2.42917 -1.51092 -0.468763 0
M  V30 9 C -3.6736 -0.941654 -0.401287 0
M  V30 10 C -3.83115 0.422484 -0.191922 0
M  V30 11 N -5.11776 1.00253 -0.123477 0
M  V30 12 C -2.69232 1.17978 -0.054993 0
M  V30 13 C -1.44481 0.609587 -0.122559 0
M  V30 14 S 0.0174346 1.63539 0.0616259 0
M  V30 15 C 1.43679 0.574879 -0.0793844 0
M  V30 16 C 2.71359 1.06078 0.0176303 0
M  V30 17 H 5.7228 0.89938 -0.829189 0
M  V30 18 H 5.537 1.14824 0.920552 0
M  V30 19 H 4.52789 -1.72464 -0.38471 0
M  V30 20 H 2.23914 -2.63912 -0.565398 0
M  V30 21 H -2.30143 -2.58043 -0.632828 0
M  V30 22 H -4.57018 -1.53286 -0.508298 0
M  V30 23 H -5.9373 0.503335 -0.504893 0
M  V30 24 H -5.27319 1.93558 0.307021 0
M  V30 25 H -2.74016 2.26944 0.113569 0
M  V30 26 H 2.84419 2.13418 0.186627 0
M  V30 END ATOM
M  V30 BEGIN BOND
M  V30 1 1 1 2
M  V30 2 2 2 3
M  V30 3 1 3 4
M  V30 4 2 4 5
M  V30 5 1 5 6
M  V30 6 1 6 7
M  V30 7 2 7 8
M  V30 8 1 8 9
M  V30 9 2 9 10
M  V30 10 1 10 11
M  V30 11 1 10 12
M  V30 12 2 12 13
M  V30 13 1 13 14
M  V30 14 1 14 15
M  V30 15 2 15 16
M  V30 16 1 16 2
M  V30 17 1 15 5
M  V30 18 1 13 7
M  V30 19 1 1 17
M  V30 20 1 1 18
M  V30 21 1 3 19
M  V30 22 1 4 20
M  V30 23 1 8 21
M  V30 24 1 9 22
M  V30 25 1 11 23
M  V30 26 1 11 24
M  V30 27 1 12 25
M  V30 28 1 16 26
M  V30 END BOND
M  V30 END CTAB
M  END
