
     RDKit          3D

  0  0  0  0  0  0  0  0  0  0999 V3000
M  V30 BEGIN CTAB
M  V30 COUNTS 35 37 0 0 0
M  V30 BEGIN ATOM
M  V30 1 N 2.1094 2.64092 -1.25055 0
M  V30 2 C 1.1424 2.66879 -0.233028 0
M  V30 3 N 0.797247 3.72689 0.490557 0
M  V30 4 O -0.133521 3.3668 1.33656 0
M  V30 5 N -0.387787 2.09434 1.16443 0
M  V30 6 C 0.390122 1.61029 0.187049 0
M  V30 7 N 0.370348 0.254271 -0.252543 0
M  V30 8 C -0.589442 -0.675657 0.364551 0
M  V30 9 C -1.98341 -0.413579 -0.0571492 0
M  V30 10 C -2.3161 0.533909 -1.00384 0
M  V30 11 C -3.61668 0.749129 -1.40871 0
M  V30 12 C -4.61588 -0.0107938 -0.8466 0
M  V30 13 C -4.3118 -0.951099 0.0883239 0
M  V30 14 C -2.99127 -1.15815 0.48917 0
M  V30 15 N -2.78639 -2.14242 1.48017 0 CHG=1
M  V30 16 O -3.70574 -2.36752 2.29427 0
M  V30 17 O -1.63658 -2.84983 1.59037 0 CHG=-1
M  V30 18 N 1.18489 -0.235195 -1.24386 0
M  V30 19 N 2.29552 -0.698489 -1.02588 0
M  V30 20 C 2.85729 -0.782522 0.241463 0
M  V30 21 N 2.44328 -0.463285 1.45989 0
M  V30 22 O 3.35608 -0.741008 2.34339 0
M  V30 23 N 4.40082 -1.2475 1.77373 0
M  V30 24 C 4.14923 -1.30132 0.438794 0
M  V30 25 N 5.02669 -1.78909 -0.553577 0
M  V30 26 H 1.76116 2.588 -2.24487 0
M  V30 27 H 3.1145 2.67086 -1.04063 0
M  V30 28 H -0.299308 -1.70511 0.0320709 0
M  V30 29 H -0.557925 -0.659534 1.45603 0
M  V30 30 H -1.55019 1.11705 -1.45462 0
M  V30 31 H -3.83475 1.50649 -2.15701 0
M  V30 32 H -5.66178 0.150116 -1.15985 0
M  V30 33 H -5.11694 -1.55599 0.534044 0
M  V30 34 H 5.05252 -2.79509 -0.776889 0
M  V30 35 H 5.64398 -1.13467 -1.05523 0
M  V30 END ATOM
M  V30 BEGIN BOND
M  V30 1 1 1 2
M  V30 2 2 2 3
M  V30 3 1 3 4
M  V30 4 1 4 5
M  V30 5 2 5 6
M  V30 6 1 6 7
M  V30 7 1 7 8
M  V30 8 1 8 9
M  V30 9 2 9 10
M  V30 10 1 10 11
M  V30 11 2 11 12
M  V30 12 1 12 13
M  V30 13 2 13 14
M  V30 14 1 14 15
M  V30 15 2 15 16
M  V30 16 1 15 17
M  V30 17 1 7 18
M  V30 18 2 18 19
M  V30 19 1 19 20
M  V30 20 2 20 21
M  V30 21 1 21 22
M  V30 22 1 22 23
M  V30 23 2 23 24
M  V30 24 1 24 25
M  V30 25 1 6 2
M  V30 26 1 14 9
M  V30 27 1 24 20
M  V30 28 1 1 26
M  V30 29 1 1 27
M  V30 30 1 8 28
M  V30 31 1 8 29
M  V30 32 1 10 30
M  V30 33 1 11 31
M  V30 34 1 12 32
M  V30 35 1 13 33
M  V30 36 1 25 34
M  V30 37 1 25 35
M  V30 END BOND
M  V30 END CTAB
M  END
