
     RDKit          3D

  0  0  0  0  0  0  0  0  0  0999 V3000
M  V30 BEGIN CTAB
M  V30 COUNTS 49 51 0 0 0
M  V30 BEGIN ATOM
M  V30 1 N 3.30414 1.41782 1.95783 0
M  V30 2 C 2.88529 0.22189 1.27269 0
M  V30 3 C 2.24894 0.462776 -0.0601247 0
M  V30 4 N 1.81424 -0.81087 -0.658975 0
M  V30 5 C 0.458377 -1.06644 -0.854949 0
M  V30 6 O 0.184189 -2.19655 -1.41695 0
M  V30 7 C -0.694919 -0.222592 -0.503759 0
M  V30 8 C -1.9068 -0.667297 -1.30146 0
M  V30 9 C -3.17863 -0.0108259 -0.907861 0
M  V30 10 C -4.21191 -1.05012 -0.441541 0
M  V30 11 C -3.69452 -1.7673 0.791864 0
M  V30 12 C -3.27354 -0.835528 1.88162 0
M  V30 13 C -2.32905 0.241551 1.36227 0
M  V30 14 C -1.03492 -0.386577 0.95978 0
M  V30 15 C -3.04905 0.948988 0.253982 0
M  V30 16 N -2.53519 2.22771 -0.0895728 0
M  V30 17 C 2.82252 -1.75921 -1.02783 0
M  V30 18 C 3.04049 1.24227 -1.05237 0
M  V30 19 C 4.35858 0.823372 -1.57641 0
M  V30 20 C 4.21139 2.07199 -0.724007 0
M  V30 21 H 2.5258 1.95483 2.35358 0
M  V30 22 H 4.11262 1.28749 2.5814 0
M  V30 23 H 3.73551 -0.487265 1.16684 0
M  V30 24 H 2.10109 -0.240929 1.92088 0
M  V30 25 H 1.33534 1.08318 0.15755 0
M  V30 26 H -0.464758 0.821846 -0.738155 0
M  V30 27 H -2.02809 -1.7707 -1.24405 0
M  V30 28 H -1.73325 -0.441499 -2.39367 0
M  V30 29 H -3.68355 0.544787 -1.73283 0
M  V30 30 H -5.0969 -0.459909 -0.124695 0
M  V30 31 H -4.41508 -1.79907 -1.20435 0
M  V30 32 H -2.88102 -2.48324 0.536424 0
M  V30 33 H -4.54048 -2.38198 1.17345 0
M  V30 34 H -4.16844 -0.338014 2.31979 0
M  V30 35 H -2.81945 -1.42688 2.68388 0
M  V30 36 H -2.19265 0.986728 2.20094 0
M  V30 37 H -0.235617 0.0777595 1.55543 0
M  V30 38 H -1.07538 -1.50346 1.13066 0
M  V30 39 H -4.10518 1.11425 0.625906 0
M  V30 40 H -2.46282 2.42349 -1.09427 0
M  V30 41 H -1.70484 2.4783 0.477701 0
M  V30 42 H 3.26608 -1.5583 -2.02858 0
M  V30 43 H 2.39914 -2.79959 -1.13448 0
M  V30 44 H 3.66383 -1.83343 -0.314635 0
M  V30 45 H 2.35894 1.71253 -1.83697 0
M  V30 46 H 4.58993 1.04145 -2.63775 0
M  V30 47 H 4.94648 -0.0142484 -1.1782 0
M  V30 48 H 4.33776 3.07218 -1.26199 0
M  V30 49 H 4.81536 2.05466 0.17595 0
M  V30 END ATOM
M  V30 BEGIN BOND
M  V30 1 1 1 2
M  V30 2 1 2 3
M  V30 3 1 3 4
M  V30 4 1 4 5
M  V30 5 2 5 6
M  V30 6 1 5 7
M  V30 7 1 7 8
M  V30 8 1 8 9
M  V30 9 1 9 10
M  V30 10 1 10 11
M  V30 11 1 11 12
M  V30 12 1 12 13
M  V30 13 1 13 14
M  V30 14 1 13 15
M  V30 15 1 15 16
M  V30 16 1 4 17
M  V30 17 1 3 18
M  V30 18 1 18 19
M  V30 19 1 19 20
M  V30 20 1 14 7
M  V30 21 1 20 18
M  V30 22 1 15 9
M  V30 23 1 1 21
M  V30 24 1 1 22
M  V30 25 1 2 23
M  V30 26 1 2 24
M  V30 27 1 3 25
M  V30 28 1 7 26
M  V30 29 1 8 27
M  V30 30 1 8 28
M  V30 31 1 9 29
M  V30 32 1 10 30
M  V30 33 1 10 31
M  V30 34 1 11 32
M  V30 35 1 11 33
M  V30 36 1 12 34
M  V30 37 1 12 35
M  V30 38 1 13 36
M  V30 39 1 14 37
M  V30 40 1 14 38
M  V30 41 1 15 39
M  V30 42 1 16 40
M  V30 43 1 16 41
M  V30 44 1 17 42
M  V30 45 1 17 43
M  V30 46 1 17 44
M  V30 47 1 18 45
M  V30 48 1 19 46
M  V30 49 1 19 47
M  V30 50 1 20 48
M  V30 51 1 20 49
M  V30 END BOND
M  V30 END CTAB
M  END
