
     RDKit          3D

  0  0  0  0  0  0  0  0  0  0999 V3000
M  V30 BEGIN CTAB
M  V30 COUNTS 39 38 0 0 0
M  V30 BEGIN ATOM
M  V30 1 C -3.6253 -1.85984 -0.200629 0
M  V30 2 C -3.0816 -0.46429 -0.445321 0
M  V30 3 C -2.44618 -0.338895 -1.80177 0
M  V30 4 C -4.28324 0.462605 -0.425294 0
M  V30 5 O -2.22564 -0.0596232 0.595806 0
M  V30 6 C -1.0624 -0.808554 0.876293 0
M  V30 7 O -0.798942 -1.82796 0.197655 0
M  V30 8 C -0.14971 -0.406468 1.96062 0
M  V30 9 N -0.815609 0.668928 2.71858 0
M  V30 10 C 1.15128 0.117931 1.41348 0
M  V30 11 C 1.94139 -0.820555 0.587299 0
M  V30 12 C 3.23192 -0.148977 0.160153 0
M  V30 13 C 3.00425 1.08267 -0.649614 0 CFG=2
M  V30 14 N 2.25434 0.787268 -1.86821 0
M  V30 15 C 4.32241 1.67201 -1.08302 0
M  V30 16 O 5.252 2.05408 -0.149523 0
M  V30 17 O 4.58876 1.82165 -2.29989 0
M  V30 18 H -4.66145 -1.92812 -0.52463 0
M  V30 19 H -3.61146 -2.00495 0.913087 0
M  V30 20 H -2.98809 -2.64431 -0.619014 0
M  V30 21 H -1.34322 -0.257898 -1.75956 0
M  V30 22 H -2.71293 -1.20884 -2.43874 0
M  V30 23 H -2.80378 0.565305 -2.33754 0
M  V30 24 H -3.95684 1.52558 -0.482739 0
M  V30 25 H -4.87449 0.282768 -1.35377 0
M  V30 26 H -4.90155 0.339138 0.476849 0
M  V30 27 H 0.0156278 -1.23764 2.68199 0
M  V30 28 H -0.111219 1.23542 3.23384 0
M  V30 29 H -1.53194 0.281116 3.34967 0
M  V30 30 H 1.70748 0.54296 2.2738 0
M  V30 31 H 0.912573 1.02008 0.769633 0
M  V30 32 H 2.19458 -1.72937 1.16599 0
M  V30 33 H 1.39119 -1.12425 -0.347868 0
M  V30 34 H 3.7981 0.0755942 1.07579 0
M  V30 35 H 3.79452 -0.886863 -0.427758 0
M  V30 36 H 2.47122 1.8824 -0.122055 0
M  V30 37 H 2.7408 0.0715739 -2.45661 0
M  V30 38 H 1.31136 0.487236 -1.59611 0
M  V30 39 H 5.90179 2.78108 -0.347724 0
M  V30 END ATOM
M  V30 BEGIN BOND
M  V30 1 1 1 2
M  V30 2 1 2 3
M  V30 3 1 2 4
M  V30 4 1 2 5
M  V30 5 1 5 6
M  V30 6 2 6 7
M  V30 7 1 6 8
M  V30 8 1 8 9
M  V30 9 1 8 10
M  V30 10 1 10 11
M  V30 11 1 11 12
M  V30 12 1 12 13
M  V30 13 1 13 14
M  V30 14 1 13 15
M  V30 15 1 15 16
M  V30 16 2 15 17
M  V30 17 1 1 18
M  V30 18 1 1 19
M  V30 19 1 1 20
M  V30 20 1 3 21
M  V30 21 1 3 22
M  V30 22 1 3 23
M  V30 23 1 4 24
M  V30 24 1 4 25
M  V30 25 1 4 26
M  V30 26 1 8 27
M  V30 27 1 9 28
M  V30 28 1 9 29
M  V30 29 1 10 30
M  V30 30 1 10 31
M  V30 31 1 11 32
M  V30 32 1 11 33
M  V30 33 1 12 34
M  V30 34 1 12 35
M  V30 35 1 13 36 CFG=1
M  V30 36 1 14 37
M  V30 37 1 14 38
M  V30 38 1 16 39
M  V30 END BOND
M  V30 END CTAB
M  END
