
     RDKit          3D

  0  0  0  0  0  0  0  0  0  0999 V3000
M  V30 BEGIN CTAB
M  V30 COUNTS 28 28 0 0 0
M  V30 BEGIN ATOM
M  V30 1 C -2.04106 -1.69946 1.63601 0
M  V30 2 C -2.15984 -0.741091 0.506758 0
M  V30 3 C -3.37004 -0.536956 -0.170869 0
M  V30 4 C -3.11311 0.414001 -1.15081 0
M  V30 5 C -1.77564 0.772227 -1.06261 0
M  V30 6 C -1.02577 1.75815 -1.89786 0
M  V30 7 N -1.24731 0.0567182 -0.0587483 0
M  V30 8 C 0.14658 0.131786 0.373158 0
M  V30 9 C 0.982975 -0.84389 -0.357055 0
M  V30 10 O 0.413352 -1.55602 -1.25495 0
M  V30 11 N 2.33641 -0.984887 -0.0798879 0
M  V30 12 C 3.2028 -0.178592 0.34114 0
M  V30 13 N 2.97639 1.1776 0.656691 0
M  V30 14 N 4.54695 -0.659492 0.522082 0
M  V30 15 H -1.3319 -1.34959 2.41078 0
M  V30 16 H -3.02051 -1.82313 2.16272 0
M  V30 17 H -1.6648 -2.66557 1.23724 0
M  V30 18 H -4.29155 -1.02193 0.0375945 0
M  V30 19 H -3.79748 0.833468 -1.87765 0
M  V30 20 H -1.6979 2.21216 -2.62403 0
M  V30 21 H -0.12863 1.26195 -2.35182 0
M  V30 22 H -0.616488 2.57176 -1.24305 0
M  V30 23 H 0.251099 -0.0315641 1.46446 0
M  V30 24 H 0.537172 1.15916 0.087402 0
M  V30 25 H 2.45964 1.50534 1.5091 0
M  V30 26 H 3.33246 1.93794 0.017918 0
M  V30 27 H 4.82426 -1.57345 0.118656 0
M  V30 28 H 5.27194 -0.126658 1.04762 0
M  V30 END ATOM
M  V30 BEGIN BOND
M  V30 1 1 1 2
M  V30 2 2 2 3
M  V30 3 1 3 4
M  V30 4 2 4 5
M  V30 5 1 5 6
M  V30 6 1 5 7
M  V30 7 1 7 8
M  V30 8 1 8 9
M  V30 9 2 9 10
M  V30 10 1 9 11
M  V30 11 2 11 12
M  V30 12 1 12 13
M  V30 13 1 12 14
M  V30 14 1 7 2
M  V30 15 1 1 15
M  V30 16 1 1 16
M  V30 17 1 1 17
M  V30 18 1 3 18
M  V30 19 1 4 19
M  V30 20 1 6 20
M  V30 21 1 6 21
M  V30 22 1 6 22
M  V30 23 1 8 23
M  V30 24 1 8 24
M  V30 25 1 13 25
M  V30 26 1 13 26
M  V30 27 1 14 27
M  V30 28 1 14 28
M  V30 END BOND
M  V30 END CTAB
M  END
