
     RDKit          3D

  0  0  0  0  0  0  0  0  0  0999 V3000
M  V30 BEGIN CTAB
M  V30 COUNTS 30 30 0 0 0
M  V30 BEGIN ATOM
M  V30 1 C -4.05345 -1.55668 -0.364181 0
M  V30 2 C -3.05505 -0.407511 -0.170783 0 CFG=1
M  V30 3 C -1.6973 -1.03193 -0.140151 0
M  V30 4 C -0.594587 -0.0700762 0.0417193 0
M  V30 5 N 0.65513 -0.569791 0.0763922 0
M  V30 6 C 1.75199 0.164667 0.233734 0
M  V30 7 N 1.59745 1.50192 0.367432 0
M  V30 8 C 0.360908 2.03167 0.336944 0
M  V30 9 N -0.734449 1.24707 0.174288 0
M  V30 10 N 0.258829 3.44474 0.482561 0
M  V30 11 N 3.06875 -0.397364 0.266446 0
M  V30 12 C 4.20996 0.445321 0.438568 0
M  V30 13 C 3.21077 -1.83429 0.121192 0
M  V30 14 N -3.2647 0.504948 -1.24502 0
M  V30 15 H -3.62263 -2.47506 0.121036 0
M  V30 16 H -4.12949 -1.774 -1.43512 0
M  V30 17 H -5.0122 -1.3569 0.105794 0
M  V30 18 H -3.23576 0.0814391 0.78414 0
M  V30 19 H -1.53506 -1.61555 -1.06612 0
M  V30 20 H -1.66736 -1.73654 0.715785 0
M  V30 21 H 0.315284 4.01731 -0.399571 0
M  V30 22 H 0.134337 3.87338 1.42665 0
M  V30 23 H 4.88262 -0.0199737 1.19747 0
M  V30 24 H 4.71326 0.606428 -0.534517 0
M  V30 25 H 3.9305 1.44178 0.83399 0
M  V30 26 H 2.24756 -2.31121 -0.130747 0
M  V30 27 H 3.92288 -2.058 -0.678302 0
M  V30 28 H 3.5568 -2.31444 1.06398 0
M  V30 29 H -3.78425 1.33517 -0.884946 0
M  V30 30 H -2.43072 0.833496 -1.73866 0
M  V30 END ATOM
M  V30 BEGIN BOND
M  V30 1 1 1 2
M  V30 2 1 2 3
M  V30 3 1 3 4
M  V30 4 2 4 5
M  V30 5 1 5 6
M  V30 6 2 6 7
M  V30 7 1 7 8
M  V30 8 2 8 9
M  V30 9 1 8 10
M  V30 10 1 6 11
M  V30 11 1 11 12
M  V30 12 1 11 13
M  V30 13 1 2 14
M  V30 14 1 9 4
M  V30 15 1 1 15
M  V30 16 1 1 16
M  V30 17 1 1 17
M  V30 18 1 2 18 CFG=1
M  V30 19 1 3 19
M  V30 20 1 3 20
M  V30 21 1 10 21
M  V30 22 1 10 22
M  V30 23 1 12 23
M  V30 24 1 12 24
M  V30 25 1 12 25
M  V30 26 1 13 26
M  V30 27 1 13 27
M  V30 28 1 13 28
M  V30 29 1 14 29
M  V30 30 1 14 30
M  V30 END BOND
M  V30 END CTAB
M  END
