
     RDKit          3D

  0  0  0  0  0  0  0  0  0  0999 V3000
M  V30 BEGIN CTAB
M  V30 COUNTS 31 33 0 0 0
M  V30 BEGIN ATOM
M  V30 1 N 4.90035 -1.10236 -0.0747158 0
M  V30 2 C 4.58949 0.269792 -0.206368 0
M  V30 3 N 5.36386 1.1033 -1.04769 0
M  V30 4 N 3.6043 0.789606 0.429411 0
M  V30 5 C 2.81147 -0.0315014 1.28192 0
M  V30 6 O 3.31415 -0.689424 2.23002 0
M  V30 7 C 1.37236 -0.103265 1.0374 0
M  V30 8 C 0.782901 0.599124 0.012931 0
M  V30 9 C -0.581481 0.514738 -0.198241 0
M  V30 10 C -1.39336 -0.264889 0.59742 0
M  V30 11 C -0.780222 -0.964654 1.62408 0
M  V30 12 C 0.566331 -0.883804 1.83557 0
M  V30 13 C -2.79125 -0.176222 0.159869 0
M  V30 14 C -2.84953 0.684953 -0.941442 0
M  V30 15 C -4.08241 0.900354 -1.50063 0
M  V30 16 C -5.24465 0.305242 -1.01962 0
M  V30 17 C -5.14995 -0.550899 0.0838136 0
M  V30 18 C -3.92118 -0.77768 0.65642 0
M  V30 19 C -1.485 1.12396 -1.17816 0
M  V30 20 O -1.12177 1.90924 -2.08546 0
M  V30 21 H 5.87449 -1.46953 0.0939851 0
M  V30 22 H 4.1595 -1.86224 -0.138584 0
M  V30 23 H 4.90063 1.79511 -1.70501 0
M  V30 24 H 6.40469 1.09135 -1.0746 0
M  V30 25 H 1.35766 1.2254 -0.644262 0
M  V30 26 H -1.40596 -1.58857 2.26642 0
M  V30 27 H 1.06099 -1.4304 2.64118 0
M  V30 28 H -4.14885 1.57079 -2.36293 0
M  V30 29 H -6.21311 0.471518 -1.45518 0
M  V30 30 H -6.025 -1.0206 0.473301 0
M  V30 31 H -3.86946 -1.43843 1.50306 0
M  V30 END ATOM
M  V30 BEGIN BOND
M  V30 1 1 1 2
M  V30 2 1 2 3
M  V30 3 2 2 4
M  V30 4 1 4 5
M  V30 5 2 5 6
M  V30 6 1 5 7
M  V30 7 2 7 8
M  V30 8 1 8 9
M  V30 9 2 9 10
M  V30 10 1 10 11
M  V30 11 2 11 12
M  V30 12 1 10 13
M  V30 13 2 13 14
M  V30 14 1 14 15
M  V30 15 2 15 16
M  V30 16 1 16 17
M  V30 17 2 17 18
M  V30 18 1 14 19
M  V30 19 2 19 20
M  V30 20 1 12 7
M  V30 21 1 18 13
M  V30 22 1 19 9
M  V30 23 1 1 21
M  V30 24 1 1 22
M  V30 25 1 3 23
M  V30 26 1 3 24
M  V30 27 1 8 25
M  V30 28 1 11 26
M  V30 29 1 12 27
M  V30 30 1 15 28
M  V30 31 1 16 29
M  V30 32 1 17 30
M  V30 33 1 18 31
M  V30 END BOND
M  V30 END CTAB
M  END
