
     RDKit          3D

  0  0  0  0  0  0  0  0  0  0999 V3000
M  V30 BEGIN CTAB
M  V30 COUNTS 27 28 0 0 0
M  V30 BEGIN ATOM
M  V30 1 N -2.42652 -1.01251 0.951187 0
M  V30 2 C -1.71958 -0.565079 -0.248974 0
M  V30 3 C -0.763126 0.526906 0.0814175 0
M  V30 4 N -1.55024 1.62445 0.643091 0
M  V30 5 C -0.191463 1.06208 -1.23574 0
M  V30 6 C 1.02068 0.192716 -1.53107 0
M  V30 7 C 2.01215 0.422991 -0.422061 0
M  V30 8 O 1.42067 1.08667 0.677658 0
M  V30 9 C 0.33958 0.224725 0.985367 0
M  V30 10 C 0.958024 -1.09418 0.994636 0
M  V30 11 C 2.27579 -0.946136 0.219982 0
M  V30 12 H -3.26586 -0.386037 1.13833 0
M  V30 13 H -2.85188 -1.94136 0.697863 0
M  V30 14 H -2.51158 -0.131559 -0.906996 0
M  V30 15 H -1.3017 -1.41953 -0.778913 0
M  V30 16 H -1.48184 2.49137 0.105652 0
M  V30 17 H -1.36523 1.74377 1.66419 0
M  V30 18 H -0.956617 0.927551 -2.03516 0
M  V30 19 H 0.131539 2.11327 -1.13364 0
M  V30 20 H 1.44477 0.436373 -2.52988 0
M  V30 21 H 0.63563 -0.855922 -1.55697 0
M  V30 22 H 2.92684 0.915362 -0.744095 0
M  V30 23 H 0.0449799 0.503981 2.03857 0
M  V30 24 H 0.404065 -1.92928 0.564365 0
M  V30 25 H 1.26322 -1.40247 2.02745 0
M  V30 26 H 3.13103 -0.850302 0.885599 0
M  V30 27 H 2.37665 -1.73784 -0.551856 0
M  V30 END ATOM
M  V30 BEGIN BOND
M  V30 1 1 1 2
M  V30 2 1 2 3
M  V30 3 1 3 4
M  V30 4 1 3 5
M  V30 5 1 5 6
M  V30 6 1 6 7
M  V30 7 1 7 8
M  V30 8 1 8 9
M  V30 9 1 9 10
M  V30 10 1 10 11
M  V30 11 1 9 3
M  V30 12 1 11 7
M  V30 13 1 1 12
M  V30 14 1 1 13
M  V30 15 1 2 14
M  V30 16 1 2 15
M  V30 17 1 4 16
M  V30 18 1 4 17
M  V30 19 1 5 18
M  V30 20 1 5 19
M  V30 21 1 6 20
M  V30 22 1 6 21
M  V30 23 1 7 22
M  V30 24 1 9 23
M  V30 25 1 10 24
M  V30 26 1 10 25
M  V30 27 1 11 26
M  V30 28 1 11 27
M  V30 END BOND
M  V30 END CTAB
M  END
