
     RDKit          3D

  0  0  0  0  0  0  0  0  0  0999 V3000
M  V30 BEGIN CTAB
M  V30 COUNTS 22 22 0 0 0
M  V30 BEGIN ATOM
M  V30 1 N 3.14118 -0.609913 0.74259 0
M  V30 2 C 1.87891 -0.952187 0.0833506 0
M  V30 3 C 0.950508 0.191712 0.286135 0
M  V30 4 C 1.18053 1.3794 0.960628 0
M  V30 5 N 0.0557542 2.12344 0.890067 0
M  V30 6 N -0.87427 1.4493 0.196534 0
M  V30 7 C -0.347652 0.268251 -0.18064 0
M  V30 8 S -1.14794 -0.958942 -1.09616 0
M  V30 9 O -2.11305 -0.419152 -2.10338 0
M  V30 10 O -0.114877 -1.74908 -1.84922 0
M  V30 11 N -1.97803 -2.08974 -0.0544122 0
M  V30 12 C -2.22433 1.88311 -0.11441 0
M  V30 13 H 3.41284 0.351183 0.436462 0
M  V30 14 H 3.91826 -1.24401 0.393997 0
M  V30 15 H 1.47555 -1.90537 0.439016 0
M  V30 16 H 2.13847 -1.06968 -1.00751 0
M  V30 17 H 2.1235 1.64012 1.45551 0
M  V30 18 H -1.31053 -2.8551 0.233217 0
M  V30 19 H -2.3827 -1.58839 0.775335 0
M  V30 20 H -2.3348 2.9687 0.178962 0
M  V30 21 H -2.46406 1.83921 -1.18021 0
M  V30 22 H -2.98326 1.34713 0.514141 0
M  V30 END ATOM
M  V30 BEGIN BOND
M  V30 1 1 1 2
M  V30 2 1 2 3
M  V30 3 1 3 4
M  V30 4 2 4 5
M  V30 5 1 5 6
M  V30 6 1 6 7
M  V30 7 1 7 8
M  V30 8 2 8 9
M  V30 9 2 8 10
M  V30 10 1 8 11
M  V30 11 1 6 12
M  V30 12 2 7 3
M  V30 13 1 1 13
M  V30 14 1 1 14
M  V30 15 1 2 15
M  V30 16 1 2 16
M  V30 17 1 4 17
M  V30 18 1 11 18
M  V30 19 1 11 19
M  V30 20 1 12 20
M  V30 21 1 12 21
M  V30 22 1 12 22
M  V30 END BOND
M  V30 END CTAB
M  END
