
     RDKit          3D

  0  0  0  0  0  0  0  0  0  0999 V3000
M  V30 BEGIN CTAB
M  V30 COUNTS 40 43 0 0 0
M  V30 BEGIN ATOM
M  V30 1 N 5.45723 -0.220171 1.30732 0
M  V30 2 C 5.26974 0.225383 -0.0126255 0
M  V30 3 N 6.35248 0.899015 -0.665817 0
M  V30 4 N 4.18619 0.05155 -0.645061 0
M  V30 5 C 3.00042 -0.563832 -0.259614 0
M  V30 6 O 3.04035 -1.8375 -0.128011 0
M  V30 7 C 1.75487 0.127258 -0.00928326 0
M  V30 8 C 0.482821 -0.449674 0.216476 0
M  V30 9 C 0.293456 -1.9101 0.243089 0
M  V30 10 C -1.05115 -2.49234 0.0109405 0
M  V30 11 C 0.100332 -2.72105 -0.959761 0
M  V30 12 N -0.399508 0.523553 0.412359 0
M  V30 13 N 0.264772 1.70511 0.318104 0
M  V30 14 C 1.55865 1.47292 0.0650782 0
M  V30 15 C -1.80515 0.502557 0.718684 0
M  V30 16 C -2.77859 0.92883 -0.158566 0
M  V30 17 C -2.42436 1.36504 -1.4243 0
M  V30 18 C -3.37927 1.79126 -2.32145 0
M  V30 19 C -4.70641 1.79016 -1.96788 0
M  V30 20 N -5.04912 1.36919 -0.745808 0
M  V30 21 C -4.12478 0.950992 0.135847 0
M  V30 22 C -4.4848 0.506537 1.40903 0
M  V30 23 C -3.5732 0.0708278 2.32432 0
M  V30 24 C -2.22811 0.0750002 1.9605 0
M  V30 25 H 6.13761 -0.967918 1.50727 0
M  V30 26 H 4.91681 0.198601 2.08078 0
M  V30 27 H 6.50396 1.89736 -0.424423 0
M  V30 28 H 6.98582 0.452564 -1.36088 0
M  V30 29 H 0.945059 -2.39748 1.03521 0
M  V30 30 H -1.30169 -3.36858 0.677365 0
M  V30 31 H -1.91683 -1.94749 -0.353117 0
M  V30 32 H 0.463247 -3.74227 -0.993912 0
M  V30 33 H 0.0674288 -2.15091 -1.91561 0
M  V30 34 H 2.30921 2.2711 -0.0533226 0
M  V30 35 H -1.36418 1.34842 -1.65934 0
M  V30 36 H -3.10196 2.13121 -3.30674 0
M  V30 37 H -5.47943 2.13348 -2.68765 0
M  V30 38 H -5.54598 0.519985 1.64161 0
M  V30 39 H -3.87768 -0.270585 3.31319 0
M  V30 40 H -1.49826 -0.268003 2.67599 0
M  V30 END ATOM
M  V30 BEGIN BOND
M  V30 1 1 1 2
M  V30 2 1 2 3
M  V30 3 2 2 4
M  V30 4 1 4 5
M  V30 5 2 5 6
M  V30 6 1 5 7
M  V30 7 2 7 8
M  V30 8 1 8 9
M  V30 9 1 9 10
M  V30 10 1 10 11
M  V30 11 1 8 12
M  V30 12 1 12 13
M  V30 13 2 13 14
M  V30 14 1 12 15
M  V30 15 1 15 16
M  V30 16 2 16 17
M  V30 17 1 17 18
M  V30 18 2 18 19
M  V30 19 1 19 20
M  V30 20 2 20 21
M  V30 21 1 21 22
M  V30 22 2 22 23
M  V30 23 1 23 24
M  V30 24 1 14 7
M  V30 25 2 24 15
M  V30 26 1 11 9
M  V30 27 1 21 16
M  V30 28 1 1 25
M  V30 29 1 1 26
M  V30 30 1 3 27
M  V30 31 1 3 28
M  V30 32 1 9 29
M  V30 33 1 10 30
M  V30 34 1 10 31
M  V30 35 1 11 32
M  V30 36 1 11 33
M  V30 37 1 14 34
M  V30 38 1 17 35
M  V30 39 1 18 36
M  V30 40 1 19 37
M  V30 41 1 22 38
M  V30 42 1 23 39
M  V30 43 1 24 40
M  V30 END BOND
M  V30 END CTAB
M  END
