
     RDKit          3D

  0  0  0  0  0  0  0  0  0  0999 V3000
M  V30 BEGIN CTAB
M  V30 COUNTS 57 58 0 0 0
M  V30 BEGIN ATOM
M  V30 1 C 5.07194 -1.09707 -1.0924 0
M  V30 2 C 3.74504 -0.441125 -1.29432 0
M  V30 3 C 3.67284 1.0148 -1.19604 0
M  V30 4 C 4.04916 1.7537 0.0133319 0
M  V30 5 C 5.48227 1.57112 0.455298 0
M  V30 6 N 5.76287 2.38461 1.63964 0
M  V30 7 N 2.68999 -1.24499 -0.749507 0
M  V30 8 C 1.31461 -0.946422 -0.718322 0
M  V30 9 C 0.540759 -1.02332 -1.88228 0
M  V30 10 O 1.1325 -1.35717 -3.07966 0
M  V30 11 C -0.809429 -0.766714 -1.83563 0
M  V30 12 O -1.58107 -0.837648 -2.98474 0
M  V30 13 C -1.41234 -0.431133 -0.633965 0
M  V30 14 N -2.83137 -0.182075 -0.565839 0
M  V30 15 C -3.78158 -1.17581 -0.143129 0
M  V30 16 C -3.76136 -2.31816 -1.14366 0
M  V30 17 C -5.17002 -0.694579 -0.00123525 0
M  V30 18 C -5.48763 0.354517 0.978984 0
M  V30 19 C -4.82946 1.67338 0.878375 0
M  V30 20 N -5.37672 2.52414 1.96719 0
M  V30 21 C -0.660624 -0.356038 0.502926 0
M  V30 22 C 0.693373 -0.613586 0.452944 0
M  V30 23 C 1.39801 -0.540193 1.65709 0
M  V30 24 C 0.736225 -0.222071 2.81397 0
M  V30 25 C -0.600318 0.0281535 2.83208 0
M  V30 26 N -1.27277 -0.042291 1.68456 0
M  V30 27 H 5.15679 -1.60347 -0.102642 0
M  V30 28 H 5.1416 -1.95665 -1.82342 0
M  V30 29 H 5.91939 -0.448759 -1.34135 0
M  V30 30 H 3.56595 -0.62336 -2.45826 0
M  V30 31 H 2.64502 1.37163 -1.50623 0
M  V30 32 H 4.30982 1.45228 -2.04925 0
M  V30 33 H 3.35148 1.6568 0.890563 0
M  V30 34 H 3.98504 2.88937 -0.176251 0
M  V30 35 H 5.63081 0.515307 0.82953 0
M  V30 36 H 6.21228 1.71592 -0.353036 0
M  V30 37 H 5.41789 1.90605 2.48279 0
M  V30 38 H 6.72831 2.72612 1.67303 0
M  V30 39 H 2.93725 -2.18978 -0.305482 0
M  V30 40 H 0.69782 -1.44474 -3.96885 0
M  V30 41 H -1.22054 -1.0701 -3.88354 0
M  V30 42 H -3.07725 0.798176 -0.883787 0
M  V30 43 H -3.39508 -1.63417 0.82254 0
M  V30 44 H -4.53534 -3.0863 -0.878922 0
M  V30 45 H -2.7639 -2.7769 -1.25416 0
M  V30 46 H -4.08504 -1.90996 -2.12113 0
M  V30 47 H -5.83671 -1.59027 0.224836 0
M  V30 48 H -5.51546 -0.397361 -1.03981 0
M  V30 49 H -6.60792 0.546369 0.898889 0
M  V30 50 H -5.36593 0.000386779 2.03621 0
M  V30 51 H -3.73498 1.64411 1.15048 0
M  V30 52 H -5.04049 2.16061 -0.0672991 0
M  V30 53 H -5.62353 1.91226 2.75388 0
M  V30 54 H -6.21159 3.04468 1.63506 0
M  V30 55 H 2.46974 -0.744267 1.62249 0
M  V30 56 H 1.28674 -0.162938 3.76514 0
M  V30 57 H -1.15709 0.284934 3.73826 0
M  V30 END ATOM
M  V30 BEGIN BOND
M  V30 1 1 1 2
M  V30 2 1 2 3
M  V30 3 1 3 4
M  V30 4 1 4 5
M  V30 5 1 5 6
M  V30 6 1 2 7
M  V30 7 1 7 8
M  V30 8 2 8 9
M  V30 9 1 9 10
M  V30 10 1 9 11
M  V30 11 1 11 12
M  V30 12 2 11 13
M  V30 13 1 13 14
M  V30 14 1 14 15
M  V30 15 1 15 16
M  V30 16 1 15 17
M  V30 17 1 17 18
M  V30 18 1 18 19
M  V30 19 1 19 20
M  V30 20 1 13 21
M  V30 21 2 21 22
M  V30 22 1 22 23
M  V30 23 2 23 24
M  V30 24 1 24 25
M  V30 25 2 25 26
M  V30 26 1 22 8
M  V30 27 1 26 21
M  V30 28 1 1 27
M  V30 29 1 1 28
M  V30 30 1 1 29
M  V30 31 1 2 30
M  V30 32 1 3 31
M  V30 33 1 3 32
M  V30 34 1 4 33
M  V30 35 1 4 34
M  V30 36 1 5 35
M  V30 37 1 5 36
M  V30 38 1 6 37
M  V30 39 1 6 38
M  V30 40 1 7 39
M  V30 41 1 10 40
M  V30 42 1 12 41
M  V30 43 1 14 42
M  V30 44 1 15 43
M  V30 45 1 16 44
M  V30 46 1 16 45
M  V30 47 1 16 46
M  V30 48 1 17 47
M  V30 49 1 17 48
M  V30 50 1 18 49
M  V30 51 1 18 50
M  V30 52 1 19 51
M  V30 53 1 19 52
M  V30 54 1 20 53
M  V30 55 1 20 54
M  V30 56 1 23 55
M  V30 57 1 24 56
M  V30 58 1 25 57
M  V30 END BOND
M  V30 END CTAB
M  END
