
     RDKit          3D

  0  0  0  0  0  0  0  0  0  0999 V3000
M  V30 BEGIN CTAB
M  V30 COUNTS 32 34 0 0 0
M  V30 BEGIN ATOM
M  V30 1 N 5.6646 -0.61693 -1.4756 0
M  V30 2 C 4.38443 -0.374075 -0.940459 0
M  V30 3 N 3.96509 -1.16723 0.062607 0
M  V30 4 C 2.7641 -1.03427 0.654637 0
M  V30 5 N 2.32764 -1.87681 1.71477 0
M  V30 6 C 1.91884 -0.0314368 0.208874 0
M  V30 7 C 0.670519 0.148985 0.78419 0
M  V30 8 C -0.179182 1.14797 0.344732 0
M  V30 9 C -1.52309 1.35891 0.948262 0
M  V30 10 C -2.57695 0.591956 0.286893 0
M  V30 11 C -2.87567 -0.676798 0.726508 0
M  V30 12 C -3.88245 -1.41102 0.0956069 0
M  V30 13 C -4.54143 -0.816879 -0.958358 0
M  V30 14 C -4.26067 0.451615 -1.41689 0
M  V30 15 C -3.25643 1.15399 -0.769689 0
M  V30 16 C 0.29156 1.93862 -0.686688 0
M  V30 17 N 1.50769 1.74434 -1.22961 0
M  V30 18 C 2.35391 0.780208 -0.821132 0
M  V30 19 N 3.56888 0.613061 -1.38909 0
M  V30 20 H 5.78269 -0.777198 -2.49572 0
M  V30 21 H 6.52074 -0.645087 -0.888153 0
M  V30 22 H 2.19045 -1.48705 2.67826 0
M  V30 23 H 2.14289 -2.88413 1.53702 0
M  V30 24 H 0.316006 -0.482608 1.59525 0
M  V30 25 H -1.50071 1.03244 2.02738 0
M  V30 26 H -1.76442 2.45903 1.00935 0
M  V30 27 H -2.36441 -1.15455 1.55424 0
M  V30 28 H -4.12146 -2.40594 0.435282 0
M  V30 29 H -5.33062 -1.38527 -1.45717 0
M  V30 30 H -4.77948 0.90825 -2.24003 0
M  V30 31 H -3.03604 2.16225 -1.1371 0
M  V30 32 H -0.377032 2.73565 -1.04289 0
M  V30 END ATOM
M  V30 BEGIN BOND
M  V30 1 1 1 2
M  V30 2 2 2 3
M  V30 3 1 3 4
M  V30 4 1 4 5
M  V30 5 2 4 6
M  V30 6 1 6 7
M  V30 7 2 7 8
M  V30 8 1 8 9
M  V30 9 1 9 10
M  V30 10 2 10 11
M  V30 11 1 11 12
M  V30 12 2 12 13
M  V30 13 1 13 14
M  V30 14 2 14 15
M  V30 15 1 8 16
M  V30 16 2 16 17
M  V30 17 1 17 18
M  V30 18 2 18 19
M  V30 19 1 19 2
M  V30 20 1 18 6
M  V30 21 1 15 10
M  V30 22 1 1 20
M  V30 23 1 1 21
M  V30 24 1 5 22
M  V30 25 1 5 23
M  V30 26 1 7 24
M  V30 27 1 9 25
M  V30 28 1 9 26
M  V30 29 1 11 27
M  V30 30 1 12 28
M  V30 31 1 13 29
M  V30 32 1 14 30
M  V30 33 1 15 31
M  V30 34 1 16 32
M  V30 END BOND
M  V30 END CTAB
M  END
