
     RDKit          3D

  0  0  0  0  0  0  0  0  0  0999 V3000
M  V30 BEGIN CTAB
M  V30 COUNTS 30 30 0 0 0
M  V30 BEGIN ATOM
M  V30 1 N 1.69038 0.441994 1.63091 0
M  V30 2 C 2.27337 -0.211437 0.511491 0
M  V30 3 C 1.53813 0.00769867 -0.78509 0
M  V30 4 C 0.148858 -0.428843 -0.818486 0
M  V30 5 C -0.896783 0.196187 -0.047274 0
M  V30 6 C -1.90446 -0.624244 0.43592 0
M  V30 7 C -1.78499 -2.12038 0.345186 0
M  V30 8 C -3.0044 -0.0440393 1.02668 0
M  V30 9 C -3.14681 1.3178 1.16062 0
M  V30 10 N -2.15889 2.09988 0.690902 0
M  V30 11 C -1.05287 1.54357 0.0969336 0
M  V30 12 N -0.14214 2.50926 -0.414277 0
M  V30 13 F -0.267979 -0.356248 -2.17922 0
M  V30 14 C 2.31414 -0.747725 -1.87334 0
M  V30 15 H 1.90622 -0.0225654 2.54774 0
M  V30 16 H 2.0939 1.43189 1.63478 0
M  V30 17 H 2.43884 -1.30955 0.69564 0
M  V30 18 H 3.34 0.177624 0.429277 0
M  V30 19 H 1.72482 1.084 -1.07444 0
M  V30 20 H 0.157555 -1.55765 -0.667201 0
M  V30 21 H -1.87453 -2.50828 -0.663187 0
M  V30 22 H -2.64163 -2.53577 0.933261 0
M  V30 23 H -0.852823 -2.45365 0.876033 0
M  V30 24 H -3.79308 -0.666031 1.40654 0
M  V30 25 H -4.00459 1.79242 1.62255 0
M  V30 26 H -0.209815 2.85785 -1.39537 0
M  V30 27 H 0.599578 2.87831 0.209436 0
M  V30 28 H 3.35691 -0.374264 -1.89757 0
M  V30 29 H 1.82331 -0.575529 -2.8496 0
M  V30 30 H 2.32979 -1.8023 -1.58883 0
M  V30 END ATOM
M  V30 BEGIN BOND
M  V30 1 1 1 2
M  V30 2 1 2 3
M  V30 3 1 3 4
M  V30 4 1 4 5
M  V30 5 2 5 6
M  V30 6 1 6 7
M  V30 7 1 6 8
M  V30 8 2 8 9
M  V30 9 1 9 10
M  V30 10 2 10 11
M  V30 11 1 11 12
M  V30 12 1 4 13
M  V30 13 1 3 14
M  V30 14 1 11 5
M  V30 15 1 1 15
M  V30 16 1 1 16
M  V30 17 1 2 17
M  V30 18 1 2 18
M  V30 19 1 3 19
M  V30 20 1 4 20
M  V30 21 1 7 21
M  V30 22 1 7 22
M  V30 23 1 7 23
M  V30 24 1 8 24
M  V30 25 1 9 25
M  V30 26 1 12 26
M  V30 27 1 12 27
M  V30 28 1 14 28
M  V30 29 1 14 29
M  V30 30 1 14 30
M  V30 END BOND
M  V30 END CTAB
M  END
