
     RDKit          3D

  0  0  0  0  0  0  0  0  0  0999 V3000
M  V30 BEGIN CTAB
M  V30 COUNTS 49 51 0 0 0
M  V30 BEGIN ATOM
M  V30 1 C -6.77316 0.442444 0.380727 0
M  V30 2 C -5.54723 -0.0664453 -0.319301 0
M  V30 3 C -4.95606 -1.27275 0.381092 0
M  V30 4 C -4.55294 -0.973454 1.7868 0
M  V30 5 C -3.52708 0.104526 1.91227 0
M  V30 6 C -2.22736 -0.213486 1.1979 0
M  V30 7 C -1.27585 0.934941 1.39551 0
M  V30 8 N 0.00896051 0.754655 0.763381 0
M  V30 9 C 0.211604 0.589004 -0.621328 0
M  V30 10 O -0.856241 0.610849 -1.32839 0
M  V30 11 C 1.48103 0.403061 -1.2852 0
M  V30 12 C 1.60892 0.244248 -2.67001 0
M  V30 13 N 0.55769 0.237802 -3.63061 0
M  V30 14 N 2.91967 0.100774 -2.89807 0
M  V30 15 C 3.61681 0.158881 -1.75469 0
M  V30 16 C 2.72657 0.352801 -0.692085 0
M  V30 17 N 3.20859 0.442441 0.563887 0
M  V30 18 C 4.51814 0.354159 0.854126 0
M  V30 19 C 5.02647 0.442514 2.12028 0
M  V30 20 C 6.37148 0.351662 2.41649 0
M  V30 21 C 7.2424 0.159468 1.35368 0
M  V30 22 C 6.75525 0.066991 0.0668403 0
M  V30 23 C 5.40147 0.162268 -0.195278 0
M  V30 24 N 4.91429 0.073128 -1.45099 0
M  V30 25 N 3.48751 -0.0874075 -4.18237 0
M  V30 26 H -7.51395 0.873307 -0.333021 0
M  V30 27 H -6.47237 1.30849 1.03847 0
M  V30 28 H -7.30685 -0.32256 0.959276 0
M  V30 29 H -5.84554 -0.405136 -1.33719 0
M  V30 30 H -4.80174 0.749055 -0.368665 0
M  V30 31 H -4.07498 -1.59416 -0.197114 0
M  V30 32 H -5.73352 -2.07275 0.353328 0
M  V30 33 H -5.4596 -0.671182 2.3467 0
M  V30 34 H -4.16827 -1.91499 2.23175 0
M  V30 35 H -3.27331 0.280314 2.96753 0
M  V30 36 H -3.94788 1.07196 1.50937 0
M  V30 37 H -1.79049 -1.11603 1.67781 0
M  V30 38 H -2.42595 -0.47495 0.15743 0
M  V30 39 H -1.15056 1.0611 2.49557 0
M  V30 40 H -1.7181 1.88653 1.01312 0
M  V30 41 H 0.840397 0.74859 1.39041 0
M  V30 42 H 0.308597 1.03849 -4.23931 0
M  V30 43 H -0.00186671 -0.634957 -3.72897 0
M  V30 44 H 4.3547 0.592717 2.95845 0
M  V30 45 H 6.756 0.423912 3.42524 0
M  V30 46 H 8.30291 0.0846445 1.5573 0
M  V30 47 H 7.40619 -0.0827098 -0.784585 0
M  V30 48 H 3.45083 -1.03362 -4.59969 0
M  V30 49 H 3.92442 0.749963 -4.65789 0
M  V30 END ATOM
M  V30 BEGIN BOND
M  V30 1 1 1 2
M  V30 2 1 2 3
M  V30 3 1 3 4
M  V30 4 1 4 5
M  V30 5 1 5 6
M  V30 6 1 6 7
M  V30 7 1 7 8
M  V30 8 1 8 9
M  V30 9 2 9 10
M  V30 10 1 9 11
M  V30 11 2 11 12
M  V30 12 1 12 13
M  V30 13 1 12 14
M  V30 14 1 14 15
M  V30 15 2 15 16
M  V30 16 1 16 17
M  V30 17 2 17 18
M  V30 18 1 18 19
M  V30 19 2 19 20
M  V30 20 1 20 21
M  V30 21 2 21 22
M  V30 22 1 22 23
M  V30 23 2 23 24
M  V30 24 1 14 25
M  V30 25 1 16 11
M  V30 26 1 23 18
M  V30 27 1 24 15
M  V30 28 1 1 26
M  V30 29 1 1 27
M  V30 30 1 1 28
M  V30 31 1 2 29
M  V30 32 1 2 30
M  V30 33 1 3 31
M  V30 34 1 3 32
M  V30 35 1 4 33
M  V30 36 1 4 34
M  V30 37 1 5 35
M  V30 38 1 5 36
M  V30 39 1 6 37
M  V30 40 1 6 38
M  V30 41 1 7 39
M  V30 42 1 7 40
M  V30 43 1 8 41
M  V30 44 1 13 42
M  V30 45 1 13 43
M  V30 46 1 19 44
M  V30 47 1 20 45
M  V30 48 1 21 46
M  V30 49 1 22 47
M  V30 50 1 25 48
M  V30 51 1 25 49
M  V30 END BOND
M  V30 END CTAB
M  END
