
     RDKit          3D

  0  0  0  0  0  0  0  0  0  0999 V3000
M  V30 BEGIN CTAB
M  V30 COUNTS 36 38 0 0 0
M  V30 BEGIN ATOM
M  V30 1 C 5.07009 -1.0279 1.3123 0
M  V30 2 O 3.76754 -1.36314 0.911076 0
M  V30 3 C 2.92624 -0.418225 0.350058 0
M  V30 4 C 3.3882 0.875527 0.186877 0
M  V30 5 C 2.58061 1.83779 -0.36603 0
M  V30 6 C 1.30635 1.52646 -0.762772 0
M  V30 7 C 0.806414 0.260171 -0.620913 0
M  V30 8 C 1.6402 -0.695555 -0.05991 0
M  V30 9 C -0.507103 -0.065116 -1.08753 0
M  V30 10 C -0.551675 -1.35963 -1.88838 0
M  V30 11 C -1.7351 -1.13782 -2.81196 0
M  V30 12 O -1.55732 -1.20629 -4.03294 0
M  V30 13 N -2.9847 -0.862201 -2.16602 0
M  V30 14 C -2.91902 -0.270387 -0.873424 0
M  V30 15 C -1.69698 0.041194 -0.257489 0
M  V30 16 C -1.70772 0.508145 1.03779 0
M  V30 17 N -0.530463 0.833546 1.76179 0
M  V30 18 N -2.90847 0.653623 1.66811 0
M  V30 19 C -4.0705 0.361477 1.08106 0
M  V30 20 N -4.05554 -0.0929772 -0.172231 0
M  V30 21 N -5.33061 0.525233 1.76678 0
M  V30 22 H 5.55675 -1.80228 1.9166 0
M  V30 23 H 5.00932 -0.114835 1.974 0
M  V30 24 H 5.71412 -0.700434 0.446944 0
M  V30 25 H 4.38646 1.13982 0.492294 0
M  V30 26 H 2.97217 2.83809 -0.479307 0
M  V30 27 H 0.705572 2.33595 -1.19849 0
M  V30 28 H 1.31228 -1.7226 0.0841763 0
M  V30 29 H -0.715341 0.715717 -1.92995 0
M  V30 30 H 0.336652 -1.38592 -2.54103 0
M  V30 31 H -0.69423 -2.25448 -1.25745 0
M  V30 32 H -3.86512 -1.08173 -2.62064 0
M  V30 33 H -0.15229 1.80113 1.82416 0
M  V30 34 H 0.0163299 0.122764 2.30695 0
M  V30 35 H -5.65517 -0.208988 2.40982 0
M  V30 36 H -5.85794 1.39388 1.57308 0
M  V30 END ATOM
M  V30 BEGIN BOND
M  V30 1 1 1 2
M  V30 2 1 2 3
M  V30 3 2 3 4
M  V30 4 1 4 5
M  V30 5 2 5 6
M  V30 6 1 6 7
M  V30 7 2 7 8
M  V30 8 1 7 9
M  V30 9 1 9 10
M  V30 10 1 10 11
M  V30 11 2 11 12
M  V30 12 1 11 13
M  V30 13 1 13 14
M  V30 14 2 14 15
M  V30 15 1 15 16
M  V30 16 1 16 17
M  V30 17 2 16 18
M  V30 18 1 18 19
M  V30 19 2 19 20
M  V30 20 1 19 21
M  V30 21 1 8 3
M  V30 22 1 15 9
M  V30 23 1 20 14
M  V30 24 1 1 22
M  V30 25 1 1 23
M  V30 26 1 1 24
M  V30 27 1 4 25
M  V30 28 1 5 26
M  V30 29 1 6 27
M  V30 30 1 8 28
M  V30 31 1 9 29
M  V30 32 1 10 30
M  V30 33 1 10 31
M  V30 34 1 13 32
M  V30 35 1 17 33
M  V30 36 1 17 34
M  V30 37 1 21 35
M  V30 38 1 21 36
M  V30 END BOND
M  V30 END CTAB
M  END
