
     RDKit          3D

  0  0  0  0  0  0  0  0  0  0999 V3000
M  V30 BEGIN CTAB
M  V30 COUNTS 16 15 0 0 0
M  V30 BEGIN ATOM
M  V30 1 N -2.71878 -0.537061 -0.00129487 0
M  V30 2 N -1.52681 0.159772 0.165297 0
M  V30 3 C -0.378124 -0.254609 -0.529766 0
M  V30 4 O -0.434822 -1.24963 -1.29555 0
M  V30 5 C 0.914705 0.463631 -0.378689 0
M  V30 6 C 1.93227 -0.566604 0.0631456 0
M  V30 7 F 1.49227 -1.09955 1.2731 0
M  V30 8 F 1.89713 -1.59486 -0.856769 0
M  V30 9 F 3.19304 -0.0254364 0.184015 0
M  V30 10 N 0.824698 1.57588 0.521388 0
M  V30 11 H -2.85336 -0.920494 -0.945668 0
M  V30 12 H -2.81751 -1.32963 0.68604 0
M  V30 13 H -1.46475 0.979983 0.791675 0
M  V30 14 H 1.21148 0.867588 -1.37615 0
M  V30 15 H 0.666194 1.33774 1.50529 0
M  V30 16 H 0.0623662 2.19327 0.193934 0
M  V30 END ATOM
M  V30 BEGIN BOND
M  V30 1 1 1 2
M  V30 2 1 2 3
M  V30 3 2 3 4
M  V30 4 1 3 5
M  V30 5 1 5 6
M  V30 6 1 6 7
M  V30 7 1 6 8
M  V30 8 1 6 9
M  V30 9 1 5 10
M  V30 10 1 1 11
M  V30 11 1 1 12
M  V30 12 1 2 13
M  V30 13 1 5 14
M  V30 14 1 10 15
M  V30 15 1 10 16
M  V30 END BOND
M  V30 END CTAB
M  END
