
     RDKit          3D

  0  0  0  0  0  0  0  0  0  0999 V3000
M  V30 BEGIN CTAB
M  V30 COUNTS 52 53 0 0 0
M  V30 BEGIN ATOM
M  V30 1 N 9.51684 1.75806 -0.341967 0
M  V30 2 C 8.86023 0.535698 0.058941 0
M  V30 3 C 7.37647 0.628935 -0.254649 0
M  V30 4 O 6.70178 -0.552873 0.127126 0
M  V30 5 C 5.32601 -0.64298 -0.094032 0
M  V30 6 C 4.60995 0.379978 -0.67344 0
M  V30 7 C 3.26486 0.275697 -0.884251 0
M  V30 8 C 2.55546 -0.847773 -0.532631 0
M  V30 9 C 1.11741 -0.897859 -0.79884 0
M  V30 10 C 0.291505 -0.284209 0.338905 0
M  V30 11 O 1.05984 0.187475 1.23977 0
M  V30 12 N -1.03343 -0.282666 0.316815 0
M  V30 13 C -2.43682 -0.275322 0.304014 0
M  V30 14 C -3.10113 1.07673 0.338734 0
M  V30 15 C -4.58056 0.942332 0.334357 0
M  V30 16 C -5.15323 0.24081 -0.872485 0
M  V30 17 C -6.62956 0.219281 -0.694772 0
M  V30 18 C -7.22143 -0.843964 -0.0475122 0
M  V30 19 C -8.58916 -0.852675 0.109695 0
M  V30 20 C -9.36011 0.204686 -0.381948 0
M  V30 21 C -8.77661 1.26467 -1.02614 0
M  V30 22 C -7.40918 1.24637 -1.16859 0
M  V30 23 C 3.26058 -1.89 0.0537617 0
M  V30 24 C 4.62047 -1.78417 0.266824 0
M  V30 25 N 5.32258 -2.86632 0.866152 0
M  V30 26 H 8.81238 2.49448 -0.548992 0
M  V30 27 H 10.1144 2.11116 0.428015 0
M  V30 28 H 9.2332 -0.343185 -0.525128 0
M  V30 29 H 9.03061 0.365636 1.13814 0
M  V30 30 H 6.96896 1.43273 0.406194 0
M  V30 31 H 7.23788 0.904264 -1.3137 0
M  V30 32 H 5.11473 1.29501 -0.970918 0
M  V30 33 H 2.76243 1.14045 -1.35541 0
M  V30 34 H 0.8774 -0.267107 -1.6862 0
M  V30 35 H 0.802981 -1.94621 -0.896248 0
M  V30 36 H -1.07048 0.357591 1.52817 0
M  V30 37 H -2.90502 -0.889969 1.1267 0
M  V30 38 H -2.77784 -0.849061 -0.625303 0
M  V30 39 H -2.75654 1.62116 -0.573049 0
M  V30 40 H -2.80144 1.68219 1.19439 0
M  V30 41 H -4.94884 0.425061 1.24939 0
M  V30 42 H -5.07045 1.95449 0.366984 0
M  V30 43 H -4.89264 0.779295 -1.80574 0
M  V30 44 H -4.73852 -0.793711 -0.903885 0
M  V30 45 H -6.61763 -1.67182 0.335863 0
M  V30 46 H -9.07653 -1.67033 0.609535 0
M  V30 47 H -10.4477 0.167249 -0.241144 0
M  V30 48 H -9.38037 2.06123 -1.3949 0
M  V30 49 H -6.93821 2.06935 -1.672 0
M  V30 50 H 2.68889 -2.76959 0.326846 0
M  V30 51 H 5.52346 -3.71768 0.29879 0
M  V30 52 H 5.66215 -2.88257 1.84817 0
M  V30 END ATOM
M  V30 BEGIN BOND
M  V30 1 1 1 2
M  V30 2 1 2 3
M  V30 3 1 3 4
M  V30 4 1 4 5
M  V30 5 2 5 6
M  V30 6 1 6 7
M  V30 7 2 7 8
M  V30 8 1 8 9
M  V30 9 1 9 10
M  V30 10 2 10 11
M  V30 11 1 10 12
M  V30 12 1 12 13
M  V30 13 1 13 14
M  V30 14 1 14 15
M  V30 15 1 15 16
M  V30 16 1 16 17
M  V30 17 2 17 18
M  V30 18 1 18 19
M  V30 19 2 19 20
M  V30 20 1 20 21
M  V30 21 2 21 22
M  V30 22 1 8 23
M  V30 23 2 23 24
M  V30 24 1 24 25
M  V30 25 1 24 5
M  V30 26 1 22 17
M  V30 27 1 1 26
M  V30 28 1 1 27
M  V30 29 1 2 28
M  V30 30 1 2 29
M  V30 31 1 3 30
M  V30 32 1 3 31
M  V30 33 1 6 32
M  V30 34 1 7 33
M  V30 35 1 9 34
M  V30 36 1 9 35
M  V30 37 1 12 36
M  V30 38 1 13 37
M  V30 39 1 13 38
M  V30 40 1 14 39
M  V30 41 1 14 40
M  V30 42 1 15 41
M  V30 43 1 15 42
M  V30 44 1 16 43
M  V30 45 1 16 44
M  V30 46 1 18 45
M  V30 47 1 19 46
M  V30 48 1 20 47
M  V30 49 1 21 48
M  V30 50 1 22 49
M  V30 51 1 23 50
M  V30 52 1 25 51
M  V30 53 1 25 52
M  V30 END BOND
M  V30 END CTAB
M  END
