
     RDKit          3D

  0  0  0  0  0  0  0  0  0  0999 V3000
M  V30 BEGIN CTAB
M  V30 COUNTS 29 29 0 0 0
M  V30 BEGIN ATOM
M  V30 1 C -1.38219 -3.99719 -0.0285939 0
M  V30 2 N -1.42238 -2.55184 -0.0530162 0
M  V30 3 C -0.278637 -1.73571 0.307307 0
M  V30 4 O 0.71513 -2.38152 0.631773 0
M  V30 5 C -0.463552 -0.291858 0.235271 0
M  V30 6 C -1.72867 0.207721 0.614448 0
M  V30 7 C -2.09245 1.5188 0.51452 0
M  V30 8 C -1.143 2.3925 0.00641799 0
M  V30 9 C 0.0981737 1.96063 -0.373904 0
M  V30 10 C 0.467234 0.587328 -0.262409 0
M  V30 11 N 1.77267 0.29777 -0.578677 0
M  V30 12 C 2.83107 -0.0713213 -0.0766848 0
M  V30 13 N 4.00408 -0.242232 -0.924563 0
M  V30 14 N 3.08301 -0.279696 1.30006 0
M  V30 15 C -1.53642 3.79423 -0.0995297 0
M  V30 16 O -2.78351 4.21193 0.289339 0
M  V30 17 O -0.717444 4.61371 -0.551476 0
M  V30 18 H -1.48621 -4.40331 -1.07195 0
M  V30 19 H -2.25803 -4.3962 0.53249 0
M  V30 20 H -0.474471 -4.3897 0.470356 0
M  V30 21 H -2.29695 -2.07287 -0.337438 0
M  V30 22 H -2.41985 -0.534437 1.00402 0
M  V30 23 H -3.0748 1.83876 0.821678 0
M  V30 24 H 0.825671 2.65546 -0.76874 0
M  V30 25 H 4.85213 0.342252 -0.786881 0
M  V30 26 H 4.00831 -0.944081 -1.66987 0
M  V30 27 H 3.15801 0.506307 2.00143 0
M  V30 28 H 3.19836 -1.26411 1.62287 0
M  V30 29 H -3.45531 4.62868 -0.352996 0
M  V30 END ATOM
M  V30 BEGIN BOND
M  V30 1 1 1 2
M  V30 2 1 2 3
M  V30 3 2 3 4
M  V30 4 1 3 5
M  V30 5 2 5 6
M  V30 6 1 6 7
M  V30 7 2 7 8
M  V30 8 1 8 9
M  V30 9 2 9 10
M  V30 10 1 10 11
M  V30 11 2 11 12
M  V30 12 1 12 13
M  V30 13 1 12 14
M  V30 14 1 8 15
M  V30 15 1 15 16
M  V30 16 2 15 17
M  V30 17 1 10 5
M  V30 18 1 1 18
M  V30 19 1 1 19
M  V30 20 1 1 20
M  V30 21 1 2 21
M  V30 22 1 6 22
M  V30 23 1 7 23
M  V30 24 1 9 24
M  V30 25 1 13 25
M  V30 26 1 13 26
M  V30 27 1 14 27
M  V30 28 1 14 28
M  V30 29 1 16 29
M  V30 END BOND
M  V30 END CTAB
M  END
