
     RDKit          3D

  0  0  0  0  0  0  0  0  0  0999 V3000
M  V30 BEGIN CTAB
M  V30 COUNTS 21 20 0 0 0
M  V30 BEGIN ATOM
M  V30 1 N -3.14794 0.56961 0.337311 0
M  V30 2 S -2.05988 -0.766876 0.581993 0
M  V30 3 O -2.87701 -2.02828 0.678932 0
M  V30 4 O -1.24578 -0.523146 1.78721 0
M  V30 5 C -1.01061 -0.82198 -0.841737 0
M  V30 6 C -0.22601 0.407387 -1.05444 0
M  V30 7 C 0.749475 0.81107 -0.0194095 0
M  V30 8 S 2.05587 -0.348292 0.27391 0
M  V30 9 N 3.08074 0.310465 1.52618 0
M  V30 10 O 2.96654 -0.442062 -0.947878 0
M  V30 11 O 1.61695 -1.72952 0.552602 0
M  V30 12 H -3.38397 0.642274 -0.692884 0
M  V30 13 H -2.69535 1.47779 0.580094 0
M  V30 14 H -1.71756 -0.987615 -1.71388 0
M  V30 15 H -0.394032 -1.75468 -0.841741 0
M  V30 16 H -0.951177 1.26596 -1.19051 0
M  V30 17 H 0.255608 0.338788 -2.07638 0
M  V30 18 H 1.28572 1.7556 -0.37821 0
M  V30 19 H 0.258358 1.13528 0.907207 0
M  V30 20 H 3.80634 -0.411741 1.80939 0
M  V30 21 H 3.63374 1.09998 1.12511 0
M  V30 END ATOM
M  V30 BEGIN BOND
M  V30 1 1 1 2
M  V30 2 2 2 3
M  V30 3 2 2 4
M  V30 4 1 2 5
M  V30 5 1 5 6
M  V30 6 1 6 7
M  V30 7 1 7 8
M  V30 8 1 8 9
M  V30 9 2 8 10
M  V30 10 2 8 11
M  V30 11 1 1 12
M  V30 12 1 1 13
M  V30 13 1 5 14
M  V30 14 1 5 15
M  V30 15 1 6 16
M  V30 16 1 6 17
M  V30 17 1 7 18
M  V30 18 1 7 19
M  V30 19 1 9 20
M  V30 20 1 9 21
M  V30 END BOND
M  V30 END CTAB
M  END
