
     RDKit          3D

  0  0  0  0  0  0  0  0  0  0999 V3000
M  V30 BEGIN CTAB
M  V30 COUNTS 26 28 0 0 0
M  V30 BEGIN ATOM
M  V30 1 N -4.95398 -0.576493 0.274881 0
M  V30 2 C -3.60848 -0.0755807 0.369943 0
M  V30 3 C -2.5618 -0.846768 -0.0286287 0
M  V30 4 C -1.24939 -0.420131 0.038875 0
M  V30 5 N -0.264177 -1.23843 -0.373905 0
M  V30 6 C 1.01864 -0.805426 -0.301417 0
M  V30 7 C 2.04868 -1.63446 -0.722193 0
M  V30 8 C 3.34997 -1.18754 -0.645537 0
M  V30 9 C 3.62064 0.0860269 -0.149025 0
M  V30 10 N 4.97016 0.524545 -0.0796866 0
M  V30 11 C 2.56702 0.877924 0.258543 0
M  V30 12 C 1.24579 0.461555 0.195934 0
M  V30 13 N 0.258017 1.27954 0.608792 0
M  V30 14 C -1.01979 0.848097 0.536534 0
M  V30 15 C -2.08354 1.63274 0.941962 0
M  V30 16 C -3.38155 1.20661 0.873496 0
M  V30 17 H -5.17583 -1.39189 0.883995 0
M  V30 18 H -5.65074 -0.128865 -0.377155 0
M  V30 19 H -2.73178 -1.84932 -0.422963 0
M  V30 20 H 1.85775 -2.62544 -1.11012 0
M  V30 21 H 4.19985 -1.78573 -0.957782 0
M  V30 22 H 5.51593 0.530063 0.808356 0
M  V30 23 H 5.42988 0.853609 -0.955383 0
M  V30 24 H 2.74407 1.86638 0.646571 0
M  V30 25 H -1.90324 2.6415 1.33799 0
M  V30 26 H -4.24207 1.75749 1.16734 0
M  V30 END ATOM
M  V30 BEGIN BOND
M  V30 1 1 1 2
M  V30 2 2 2 3
M  V30 3 1 3 4
M  V30 4 2 4 5
M  V30 5 1 5 6
M  V30 6 2 6 7
M  V30 7 1 7 8
M  V30 8 2 8 9
M  V30 9 1 9 10
M  V30 10 1 9 11
M  V30 11 2 11 12
M  V30 12 1 12 13
M  V30 13 2 13 14
M  V30 14 1 14 15
M  V30 15 2 15 16
M  V30 16 1 16 2
M  V30 17 1 14 4
M  V30 18 1 12 6
M  V30 19 1 1 17
M  V30 20 1 1 18
M  V30 21 1 3 19
M  V30 22 1 7 20
M  V30 23 1 8 21
M  V30 24 1 10 22
M  V30 25 1 10 23
M  V30 26 1 11 24
M  V30 27 1 15 25
M  V30 28 1 16 26
M  V30 END BOND
M  V30 END CTAB
M  END
