
     RDKit          3D

  0  0  0  0  0  0  0  0  0  0999 V3000
M  V30 BEGIN CTAB
M  V30 COUNTS 31 32 0 0 0
M  V30 BEGIN ATOM
M  V30 1 C -4.37603 -2.18185 -0.296123 0
M  V30 2 O -3.76533 -0.938051 -0.142066 0
M  V30 3 C -2.40783 -0.697528 -0.155685 0
M  V30 4 C -1.99192 0.614894 0.0152612 0
M  V30 5 O -2.93438 1.61696 0.189848 0
M  V30 6 C -2.56933 2.95204 0.365769 0
M  V30 7 C -0.635742 0.850505 0.00113643 0
M  V30 8 C 0.298631 -0.152645 -0.173322 0
M  V30 9 C -0.116787 -1.45373 -0.342892 0
M  V30 10 C -1.47595 -1.69764 -0.329734 0
M  V30 11 C 1.71908 0.194016 -0.181134 0
M  V30 12 C 2.64093 -0.516647 0.542438 0
M  V30 13 N 2.2577 -1.64422 1.35007 0
M  V30 14 N 3.93088 -0.136206 0.491703 0
M  V30 15 C 4.29286 0.914469 -0.2522 0
M  V30 16 N 5.67317 1.3241 -0.308453 0
M  V30 17 N 3.40233 1.63083 -0.973978 0
M  V30 18 N 2.1405 1.24211 -0.911687 0
M  V30 19 H -5.36594 -2.24343 0.228436 0
M  V30 20 H -4.55864 -2.35571 -1.37267 0
M  V30 21 H -3.71812 -2.95572 0.164706 0
M  V30 22 H -2.02913 3.32497 -0.531891 0
M  V30 23 H -3.49568 3.54449 0.526167 0
M  V30 24 H -1.94104 3.10374 1.28654 0
M  V30 25 H -0.304285 1.86961 0.133582 0
M  V30 26 H 0.592434 -2.28319 -0.489281 0
M  V30 27 H -1.795 -2.71672 -0.462795 0
M  V30 28 H 1.7708 -1.5204 2.25696 0
M  V30 29 H 2.46596 -2.60921 1.03204 0
M  V30 30 H 6.08668 1.69126 -1.19448 0
M  V30 31 H 6.20918 1.22891 0.573775 0
M  V30 END ATOM
M  V30 BEGIN BOND
M  V30 1 1 1 2
M  V30 2 1 2 3
M  V30 3 2 3 4
M  V30 4 1 4 5
M  V30 5 1 5 6
M  V30 6 1 4 7
M  V30 7 2 7 8
M  V30 8 1 8 9
M  V30 9 2 9 10
M  V30 10 1 8 11
M  V30 11 2 11 12
M  V30 12 1 12 13
M  V30 13 1 12 14
M  V30 14 2 14 15
M  V30 15 1 15 16
M  V30 16 1 15 17
M  V30 17 2 17 18
M  V30 18 1 10 3
M  V30 19 1 18 11
M  V30 20 1 1 19
M  V30 21 1 1 20
M  V30 22 1 1 21
M  V30 23 1 6 22
M  V30 24 1 6 23
M  V30 25 1 6 24
M  V30 26 1 7 25
M  V30 27 1 9 26
M  V30 28 1 10 27
M  V30 29 1 13 28
M  V30 30 1 13 29
M  V30 31 1 16 30
M  V30 32 1 16 31
M  V30 END BOND
M  V30 END CTAB
M  END
