
     RDKit          3D

  0  0  0  0  0  0  0  0  0  0999 V3000
M  V30 BEGIN CTAB
M  V30 COUNTS 16 16 0 0 0
M  V30 BEGIN ATOM
M  V30 1 N -3.40103 1.17217 -0.339698 0
M  V30 2 N -2.28859 0.363267 -0.283512 0
M  V30 3 C -1.03122 0.859628 0.117467 0
M  V30 4 O -0.936116 2.07089 0.428586 0
M  V30 5 C 0.154956 0.0129104 0.181158 0
M  V30 6 N 0.26442 -1.29665 -0.107535 0
M  V30 7 N 1.51295 -1.68122 0.080703 0
M  V30 8 C 2.25706 -0.629956 0.49919 0
M  V30 9 N 1.38838 0.39572 0.549569 0
M  V30 10 N 3.63852 -0.668678 0.800002 0
M  V30 11 H -3.78065 1.28365 0.61626 0
M  V30 12 H -3.2551 2.09286 -0.764883 0
M  V30 13 H -2.36038 -0.637388 -0.539027 0
M  V30 14 H -0.478195 -1.9487 -0.43019 0
M  V30 15 H 4.25242 -1.30829 0.26135 0
M  V30 16 H 4.06257 -0.0802225 1.54084 0
M  V30 END ATOM
M  V30 BEGIN BOND
M  V30 1 1 1 2
M  V30 2 1 2 3
M  V30 3 2 3 4
M  V30 4 1 3 5
M  V30 5 1 5 6
M  V30 6 1 6 7
M  V30 7 2 7 8
M  V30 8 1 8 9
M  V30 9 1 8 10
M  V30 10 2 9 5
M  V30 11 1 1 11
M  V30 12 1 1 12
M  V30 13 1 2 13
M  V30 14 1 6 14
M  V30 15 1 10 15
M  V30 16 1 10 16
M  V30 END BOND
M  V30 END CTAB
M  END
