
     RDKit          3D

  0  0  0  0  0  0  0  0  0  0999 V3000
M  V30 BEGIN CTAB
M  V30 COUNTS 24 23 0 0 0
M  V30 BEGIN ATOM
M  V30 1 C -3.13137 0.302968 -0.928216 0
M  V30 2 C -1.69015 0.441736 -0.550023 0
M  V30 3 C -1.31265 -0.565941 0.535616 0
M  V30 4 C 0.133618 -0.41454 0.903594 0
M  V30 5 N 1.02576 -0.631307 -0.20974 0
M  V30 6 C 2.40927 -0.519517 -0.000161777 0
M  V30 7 N 3.07029 0.451695 -0.501485 0
M  V30 8 N 2.40542 1.40993 -1.26535 0
M  V30 9 N 3.10613 -1.47873 0.770893 0
M  V30 10 O -1.51044 1.70711 0.014522 0
M  V30 11 H -3.76991 1.12689 -0.527103 0
M  V30 12 H -3.5845 -0.638615 -0.552637 0
M  V30 13 H -3.23799 0.364031 -2.03764 0
M  V30 14 H -1.04045 0.303158 -1.44087 0
M  V30 15 H -1.91231 -0.28225 1.42498 0
M  V30 16 H -1.59027 -1.58414 0.262047 0
M  V30 17 H 0.360559 -1.22627 1.64838 0
M  V30 18 H 0.331491 0.572398 1.317 0
M  V30 19 H 0.631256 -0.864206 -1.13844 0
M  V30 20 H 2.34365 2.42834 -0.966729 0
M  V30 21 H 1.96638 1.07062 -2.1563 0
M  V30 22 H 3.44306 -2.37353 0.349175 0
M  V30 23 H 3.26511 -1.24031 1.78967 0
M  V30 24 H -1.71195 1.64046 0.974008 0
M  V30 END ATOM
M  V30 BEGIN BOND
M  V30 1 1 1 2
M  V30 2 1 2 3
M  V30 3 1 3 4
M  V30 4 1 4 5
M  V30 5 1 5 6
M  V30 6 2 6 7 CFG=2
M  V30 7 1 7 8
M  V30 8 1 6 9
M  V30 9 1 2 10
M  V30 10 1 1 11
M  V30 11 1 1 12
M  V30 12 1 1 13
M  V30 13 1 2 14
M  V30 14 1 3 15
M  V30 15 1 3 16
M  V30 16 1 4 17
M  V30 17 1 4 18
M  V30 18 1 5 19
M  V30 19 1 8 20
M  V30 20 1 8 21
M  V30 21 1 9 22
M  V30 22 1 9 23
M  V30 23 1 10 24
M  V30 END BOND
M  V30 END CTAB
M  END
