
     RDKit          3D

  0  0  0  0  0  0  0  0  0  0999 V3000
M  V30 BEGIN CTAB
M  V30 COUNTS 34 34 0 0 0
M  V30 BEGIN ATOM
M  V30 1 N 3.48316 1.03444 -0.936833 0
M  V30 2 C 2.15808 1.22813 -0.341833 0
M  V30 3 C 1.67219 -0.118983 0.0798085 0
M  V30 4 C 0.341306 -0.191835 0.715935 0
M  V30 5 C 0.105928 -1.67354 1.03884 0
M  V30 6 C -0.637179 -2.36306 -0.0796643 0
M  V30 7 C -2.05219 -1.8891 -0.0401378 0
M  V30 8 C -2.05698 -0.461681 0.435294 0
M  V30 9 C -0.827503 0.306961 -0.01751 0
M  V30 10 C -1.18332 1.75835 0.288962 0
M  V30 11 C -2.3965 2.19651 -0.505991 0
M  V30 12 N 2.65378 -0.667704 1.00314 0
M  V30 13 H 3.78949 0.0565147 -0.925513 0
M  V30 14 H 4.20546 1.6191 -0.509595 0
M  V30 15 H 1.53608 1.61974 -1.20041 0
M  V30 16 H 2.28761 1.95347 0.45902 0
M  V30 17 H 1.72985 -0.765792 -0.8275 0
M  V30 18 H 0.374692 0.312494 1.71465 0
M  V30 19 H -0.463799 -1.80095 1.96041 0
M  V30 20 H 1.06849 -2.21487 1.16076 0
M  V30 21 H -0.596694 -3.44942 0.131565 0
M  V30 22 H -0.152697 -2.22054 -1.06492 0
M  V30 23 H -2.59893 -2.56494 0.678751 0
M  V30 24 H -2.5353 -2.02061 -1.02482 0
M  V30 25 H -2.99964 -0.0111787 0.102741 0
M  V30 26 H -1.99136 -0.500011 1.56104 0
M  V30 27 H -0.764868 0.221677 -1.13018 0
M  V30 28 H -1.47166 1.8666 1.3672 0
M  V30 29 H -0.372009 2.4453 -0.00291307 0
M  V30 30 H -2.34617 3.31555 -0.575248 0
M  V30 31 H -2.36382 1.82697 -1.53652 0
M  V30 32 H -3.35102 1.98896 0.021667 0
M  V30 33 H 3.4991 -0.0659043 1.08995 0
M  V30 34 H 2.25642 -0.770655 1.97556 0
M  V30 END ATOM
M  V30 BEGIN BOND
M  V30 1 1 1 2
M  V30 2 1 2 3
M  V30 3 1 3 4
M  V30 4 1 4 5
M  V30 5 1 5 6
M  V30 6 1 6 7
M  V30 7 1 7 8
M  V30 8 1 8 9
M  V30 9 1 9 10
M  V30 10 1 10 11
M  V30 11 1 3 12
M  V30 12 1 9 4
M  V30 13 1 1 13
M  V30 14 1 1 14
M  V30 15 1 2 15
M  V30 16 1 2 16
M  V30 17 1 3 17
M  V30 18 1 4 18
M  V30 19 1 5 19
M  V30 20 1 5 20
M  V30 21 1 6 21
M  V30 22 1 6 22
M  V30 23 1 7 23
M  V30 24 1 7 24
M  V30 25 1 8 25
M  V30 26 1 8 26
M  V30 27 1 9 27
M  V30 28 1 10 28
M  V30 29 1 10 29
M  V30 30 1 11 30
M  V30 31 1 11 31
M  V30 32 1 11 32
M  V30 33 1 12 33
M  V30 34 1 12 34
M  V30 END BOND
M  V30 END CTAB
M  END
