
     RDKit          3D

  0  0  0  0  0  0  0  0  0  0999 V3000
M  V30 BEGIN CTAB
M  V30 COUNTS 39 38 0 0 0
M  V30 BEGIN ATOM
M  V30 1 N 6.08711 -0.528806 -0.641084 0
M  V30 2 C 5.73765 -0.145001 0.700211 0
M  V30 3 C 4.21682 -0.0821669 0.817846 0
M  V30 4 C 3.76361 0.930771 -0.188689 0
M  V30 5 N 2.31226 1.05062 -0.113572 0
M  V30 6 C 1.72394 -0.154054 -0.588306 0
M  V30 7 C 0.216109 -0.011811 -0.632544 0
M  V30 8 N -0.252598 0.262094 0.70396 0
M  V30 9 C -1.70115 0.376707 0.750663 0
M  V30 10 C -2.37262 -0.94741 0.537133 0
M  V30 11 N -3.83796 -0.828402 0.566759 0
M  V30 12 C -4.24995 -0.121908 -0.615255 0
M  V30 13 C -5.754 0.0297989 -0.714273 0
M  V30 14 N -6.30038 0.776003 0.395551 0
M  V30 15 H 5.42155 -1.23394 -1.04862 0
M  V30 16 H 6.15927 0.261103 -1.30272 0
M  V30 17 H 6.15845 -0.844139 1.46089 0
M  V30 18 H 6.11426 0.869651 0.898679 0
M  V30 19 H 3.78786 -1.07494 0.615563 0
M  V30 20 H 3.94913 0.206492 1.85752 0
M  V30 21 H 4.26024 1.91669 -0.0537433 0
M  V30 22 H 3.96896 0.582161 -1.23005 0
M  V30 23 H 2.12928 1.26422 0.892179 0
M  V30 24 H 1.88349 -0.995077 0.155028 0
M  V30 25 H 2.10189 -0.472261 -1.58229 0
M  V30 26 H -0.249335 -0.948423 -1.02051 0
M  V30 27 H -0.0830816 0.806957 -1.33697 0
M  V30 28 H 0.215659 1.03398 1.19108 0
M  V30 29 H -1.92628 0.740022 1.77891 0
M  V30 30 H -1.97559 1.12936 0.0201727 0
M  V30 31 H -2.04306 -1.37876 -0.422269 0
M  V30 32 H -2.0751 -1.66034 1.35714 0
M  V30 33 H -4.24029 -1.78788 0.603526 0
M  V30 34 H -3.94546 -0.77112 -1.48588 0
M  V30 35 H -3.78104 0.858521 -0.68527 0
M  V30 36 H -6.18786 -0.995497 -0.806029 0
M  V30 37 H -5.98255 0.567967 -1.6621 0
M  V30 38 H -7.32275 0.816537 0.319495 0
M  V30 39 H -5.92648 0.502266 1.31556 0
M  V30 END ATOM
M  V30 BEGIN BOND
M  V30 1 1 1 2
M  V30 2 1 2 3
M  V30 3 1 3 4
M  V30 4 1 4 5
M  V30 5 1 5 6
M  V30 6 1 6 7
M  V30 7 1 7 8
M  V30 8 1 8 9
M  V30 9 1 9 10
M  V30 10 1 10 11
M  V30 11 1 11 12
M  V30 12 1 12 13
M  V30 13 1 13 14
M  V30 14 1 1 15
M  V30 15 1 1 16
M  V30 16 1 2 17
M  V30 17 1 2 18
M  V30 18 1 3 19
M  V30 19 1 3 20
M  V30 20 1 4 21
M  V30 21 1 4 22
M  V30 22 1 5 23
M  V30 23 1 6 24
M  V30 24 1 6 25
M  V30 25 1 7 26
M  V30 26 1 7 27
M  V30 27 1 8 28
M  V30 28 1 9 29
M  V30 29 1 9 30
M  V30 30 1 10 31
M  V30 31 1 10 32
M  V30 32 1 11 33
M  V30 33 1 12 34
M  V30 34 1 12 35
M  V30 35 1 13 36
M  V30 36 1 13 37
M  V30 37 1 14 38
M  V30 38 1 14 39
M  V30 END BOND
M  V30 END CTAB
M  END
