
     RDKit          3D

  0  0  0  0  0  0  0  0  0  0999 V3000
M  V30 BEGIN CTAB
M  V30 COUNTS 29 30 0 0 0
M  V30 BEGIN ATOM
M  V30 1 C -4.50134 0.949776 -0.895164 0
M  V30 2 C -3.22095 0.367048 -0.415201 0
M  V30 3 C -2.78178 0.583652 0.872573 0
M  V30 4 C -1.59981 0.0569599 1.34587 0
M  V30 5 C -0.789696 -0.727488 0.528261 0
M  V30 6 C 0.476399 -1.30251 1.01335 0
M  V30 7 N 1.61536 -0.414295 0.8322 0
M  V30 8 N 2.04844 0.503038 1.71038 0
M  V30 9 C 3.10748 1.15396 1.25225 0
M  V30 10 C 3.37989 0.631379 0.00530961 0
M  V30 11 N 4.41456 0.989104 -0.897596 0
M  V30 12 C 2.43316 -0.346158 -0.232464 0
M  V30 13 N 2.3765 -1.1324 -1.43368 0
M  V30 14 C -1.23476 -0.938717 -0.754244 0
M  V30 15 C -2.42813 -0.407766 -1.23443 0
M  V30 16 H -5.27656 0.992482 -0.113091 0
M  V30 17 H -4.85107 0.325975 -1.76264 0
M  V30 18 H -4.26511 1.99253 -1.2348 0
M  V30 19 H -3.35226 1.18486 1.57993 0
M  V30 20 H -1.28555 0.248446 2.36577 0
M  V30 21 H 0.639672 -2.25089 0.425166 0
M  V30 22 H 0.407612 -1.63793 2.08771 0
M  V30 23 H 3.6984 1.94751 1.7008 0
M  V30 24 H 4.54694 1.96567 -1.23229 0
M  V30 25 H 5.07388 0.264774 -1.24872 0
M  V30 26 H 1.75175 -0.829137 -2.22817 0
M  V30 27 H 2.96506 -2.00229 -1.49584 0
M  V30 28 H -0.633934 -1.54805 -1.43009 0
M  V30 29 H -2.71415 -0.619541 -2.26381 0
M  V30 END ATOM
M  V30 BEGIN BOND
M  V30 1 1 1 2
M  V30 2 2 2 3
M  V30 3 1 3 4
M  V30 4 2 4 5
M  V30 5 1 5 6
M  V30 6 1 6 7
M  V30 7 1 7 8
M  V30 8 2 8 9
M  V30 9 1 9 10
M  V30 10 1 10 11
M  V30 11 2 10 12
M  V30 12 1 12 13
M  V30 13 1 5 14
M  V30 14 2 14 15
M  V30 15 1 15 2
M  V30 16 1 12 7
M  V30 17 1 1 16
M  V30 18 1 1 17
M  V30 19 1 1 18
M  V30 20 1 3 19
M  V30 21 1 4 20
M  V30 22 1 6 21
M  V30 23 1 6 22
M  V30 24 1 9 23
M  V30 25 1 11 24
M  V30 26 1 11 25
M  V30 27 1 13 26
M  V30 28 1 13 27
M  V30 29 1 14 28
M  V30 30 1 15 29
M  V30 END BOND
M  V30 END CTAB
M  END
