
     RDKit          3D

  0  0  0  0  0  0  0  0  0  0999 V3000
M  V30 BEGIN CTAB
M  V30 COUNTS 37 37 0 0 0
M  V30 BEGIN ATOM
M  V30 1 C 3.27686 -2.02724 0.789946 0
M  V30 2 C 3.39437 -0.99547 -0.295255 0
M  V30 3 N 2.32045 -0.0163372 -0.214492 0
M  V30 4 C 0.960463 -0.409269 -0.322036 0
M  V30 5 N 0.584983 -1.67671 -0.500744 0
M  V30 6 C -0.695023 -2.03633 -0.600626 0
M  V30 7 N -1.01508 -3.39464 -0.7887 0
M  V30 8 N -0.830018 -4.16356 0.158443 0 CHG=1
M  V30 9 N -0.642585 -5.20765 0.779836 0 CHG=-1
M  V30 10 N -1.65065 -1.11795 -0.522585 0
M  V30 11 C -1.32243 0.152663 -0.345452 0
M  V30 12 N -2.2862 1.19898 -0.251362 0
M  V30 13 C -3.68816 0.821312 -0.358769 0
M  V30 14 C -4.55481 2.02893 -0.239779 0
M  V30 15 C -4.01115 -0.23823 0.670157 0
M  V30 16 N -0.0161608 0.51203 -0.244498 0
M  V30 17 P 2.72357 1.67237 0.0193929 0
M  V30 18 N 1.90631 2.68814 -1.14509 0
M  V30 19 N 4.43037 1.94042 -0.138648 0
M  V30 20 O 2.26474 2.06056 1.40492 0
M  V30 21 H 2.52525 -1.73061 1.55871 0
M  V30 22 H 4.27562 -2.17477 1.29016 0
M  V30 23 H 3.00165 -3.02946 0.400051 0
M  V30 24 H 4.36895 -0.483162 -0.324658 0
M  V30 25 H 3.26961 -1.52352 -1.28592 0
M  V30 26 H -2.03633 2.18937 -0.11354 0
M  V30 27 H -3.84665 0.38123 -1.36078 0
M  V30 28 H -4.97432 2.36677 -1.20968 0
M  V30 29 H -5.40238 1.90121 0.458746 0
M  V30 30 H -3.93493 2.88541 0.137959 0
M  V30 31 H -4.13146 -1.23397 0.223151 0
M  V30 32 H -3.19394 -0.283906 1.4173 0
M  V30 33 H -4.93169 0.0170974 1.2372 0
M  V30 34 H 2.43082 3.57223 -1.32791 0
M  V30 35 H 1.68656 2.17116 -2.02695 0
M  V30 36 H 4.76105 1.88042 -1.10783 0
M  V30 37 H 4.98233 1.30247 0.456652 0
M  V30 END ATOM
M  V30 BEGIN BOND
M  V30 1 1 1 2
M  V30 2 1 2 3
M  V30 3 1 3 4
M  V30 4 2 4 5
M  V30 5 1 5 6
M  V30 6 1 6 7
M  V30 7 2 7 8 CFG=2
M  V30 8 2 8 9
M  V30 9 2 6 10
M  V30 10 1 10 11
M  V30 11 1 11 12
M  V30 12 1 12 13
M  V30 13 1 13 14
M  V30 14 1 13 15
M  V30 15 2 11 16
M  V30 16 1 3 17
M  V30 17 1 17 18
M  V30 18 1 17 19
M  V30 19 2 17 20
M  V30 20 1 16 4
M  V30 21 1 1 21
M  V30 22 1 1 22
M  V30 23 1 1 23
M  V30 24 1 2 24
M  V30 25 1 2 25
M  V30 26 1 12 26
M  V30 27 1 13 27
M  V30 28 1 14 28
M  V30 29 1 14 29
M  V30 30 1 14 30
M  V30 31 1 15 31
M  V30 32 1 15 32
M  V30 33 1 15 33
M  V30 34 1 18 34
M  V30 35 1 18 35
M  V30 36 1 19 36
M  V30 37 1 19 37
M  V30 END BOND
M  V30 END CTAB
M  END
