
     RDKit          3D

  0  0  0  0  0  0  0  0  0  0999 V3000
M  V30 BEGIN CTAB
M  V30 COUNTS 24 25 0 0 0
M  V30 BEGIN ATOM
M  V30 1 N 2.89177 -1.55928 -0.0885553 0
M  V30 2 C 1.94005 -0.505382 0.000907858 0
M  V30 3 C 0.590242 -0.754994 0.0394837 0
M  V30 4 C -0.320825 0.280633 0.126492 0
M  V30 5 N 0.170809 1.53161 0.171178 0
M  V30 6 C 1.4855 1.78185 0.133965 0
M  V30 7 C 2.42834 0.784639 0.0476986 0
M  V30 8 N 3.79108 1.13677 0.013853 0
M  V30 9 N -1.71085 0.00793693 0.165447 0
M  V30 10 C -2.9228 0.780703 0.250648 0
M  V30 11 C -3.59101 -0.328821 -0.573952 0
M  V30 12 C -2.52633 -1.17699 0.136332 0
M  V30 13 H 3.43993 -1.6386 -0.956699 0
M  V30 14 H 3.06301 -2.2461 0.664799 0
M  V30 15 H 0.214461 -1.77976 0.00185006 0
M  V30 16 H 1.79811 2.83 0.175156 0
M  V30 17 H 4.32661 1.00493 -0.86205 0
M  V30 18 H 4.26982 1.52435 0.84427 0
M  V30 19 H -2.93227 1.74032 -0.280171 0
M  V30 20 H -3.34388 0.788643 1.27522 0
M  V30 21 H -3.3716 -0.149106 -1.64201 0
M  V30 22 H -4.61968 -0.553213 -0.296382 0
M  V30 23 H -2.92401 -1.48955 1.13919 0
M  V30 24 H -2.14648 -2.01062 -0.486668 0
M  V30 END ATOM
M  V30 BEGIN BOND
M  V30 1 1 1 2
M  V30 2 2 2 3
M  V30 3 1 3 4
M  V30 4 2 4 5
M  V30 5 1 5 6
M  V30 6 2 6 7
M  V30 7 1 7 8
M  V30 8 1 4 9
M  V30 9 1 9 10
M  V30 10 1 10 11
M  V30 11 1 11 12
M  V30 12 1 7 2
M  V30 13 1 12 9
M  V30 14 1 1 13
M  V30 15 1 1 14
M  V30 16 1 3 15
M  V30 17 1 6 16
M  V30 18 1 8 17
M  V30 19 1 8 18
M  V30 20 1 10 19
M  V30 21 1 10 20
M  V30 22 1 11 21
M  V30 23 1 11 22
M  V30 24 1 12 23
M  V30 25 1 12 24
M  V30 END BOND
M  V30 END CTAB
M  END
