
     RDKit          3D

  0  0  0  0  0  0  0  0  0  0999 V3000
M  V30 BEGIN CTAB
M  V30 COUNTS 37 38 0 0 0
M  V30 BEGIN ATOM
M  V30 1 N -1.78309 2.2097 0.0759237 0
M  V30 2 C -2.61252 1.06384 0.106656 0
M  V30 3 C -3.95181 1.19903 0.400048 0
M  V30 4 C -4.78004 0.115726 0.352688 0
M  V30 5 C -4.28216 -1.1321 0.00731439 0
M  V30 6 C -2.93952 -1.22319 -0.273281 0
M  V30 7 C -2.06918 -0.171902 -0.238782 0
M  V30 8 C -0.617864 -0.308428 -0.389335 0 CFG=1
M  V30 9 C -0.0348242 0.0834254 -1.68963 0
M  V30 10 C 1.37636 0.675532 -1.52013 0
M  V30 11 C 2.24751 -0.551242 -1.30505 0
M  V30 12 N 2.44713 -0.84106 0.0699812 0
M  V30 13 C 1.37366 -1.14116 0.872004 0
M  V30 14 C 0.204204 -0.163036 0.852323 0
M  V30 15 S 3.98847 -0.661011 0.699431 0
M  V30 16 O 3.96927 -1.08314 2.14581 0
M  V30 17 O 4.99158 -1.51691 -0.0121373 0
M  V30 18 N 4.48717 0.992586 0.540351 0
M  V30 19 H -1.84541 2.75583 -0.829605 0
M  V30 20 H -1.15724 2.57585 0.768133 0
M  V30 21 H -4.39118 2.17078 0.662091 0
M  V30 22 H -5.84402 0.198396 0.578707 0
M  V30 23 H -4.89792 -2.01006 -0.0313327 0
M  V30 24 H -2.58356 -2.24223 -0.533304 0
M  V30 25 H -0.529014 -1.51597 -0.498665 0
M  V30 26 H -0.678632 0.89649 -2.19752 0
M  V30 27 H 0.0582907 -0.6906 -2.44864 0
M  V30 28 H 1.62198 1.25215 -2.41176 0
M  V30 29 H 1.42368 1.35156 -0.6441 0
M  V30 30 H 1.82972 -1.43368 -1.84453 0
M  V30 31 H 3.21841 -0.353596 -1.78748 0
M  V30 32 H 0.944465 -2.13968 0.566546 0
M  V30 33 H 1.68085 -1.27182 1.91992 0
M  V30 34 H 0.417414 0.821942 1.22332 0
M  V30 35 H -0.472874 -0.621094 1.66776 0
M  V30 36 H 5.43886 1.12747 0.864506 0
M  V30 37 H 3.75183 1.58159 0.93391 0
M  V30 END ATOM
M  V30 BEGIN BOND
M  V30 1 1 1 2
M  V30 2 2 2 3
M  V30 3 1 3 4
M  V30 4 2 4 5
M  V30 5 1 5 6
M  V30 6 2 6 7
M  V30 7 1 7 8
M  V30 8 1 8 9
M  V30 9 1 9 10
M  V30 10 1 10 11
M  V30 11 1 11 12
M  V30 12 1 12 13
M  V30 13 1 13 14
M  V30 14 1 12 15
M  V30 15 2 15 16
M  V30 16 2 15 17
M  V30 17 1 15 18
M  V30 18 1 7 2
M  V30 19 1 14 8
M  V30 20 1 1 19
M  V30 21 1 1 20
M  V30 22 1 3 21
M  V30 23 1 4 22
M  V30 24 1 5 23
M  V30 25 1 6 24
M  V30 26 1 8 25 CFG=3
M  V30 27 1 9 26
M  V30 28 1 9 27
M  V30 29 1 10 28
M  V30 30 1 10 29
M  V30 31 1 11 30
M  V30 32 1 11 31
M  V30 33 1 13 32
M  V30 34 1 13 33
M  V30 35 1 14 34
M  V30 36 1 14 35
M  V30 37 1 18 36
M  V30 38 1 18 37
M  V30 END BOND
M  V30 END CTAB
M  END
