
     RDKit          3D

  0  0  0  0  0  0  0  0  0  0999 V3000
M  V30 BEGIN CTAB
M  V30 COUNTS 34 35 0 0 0
M  V30 BEGIN ATOM
M  V30 1 O 1.32932 -1.6841 -0.928168 0
M  V30 2 C 1.1925 -0.573527 -0.332718 0
M  V30 3 C -0.210837 -0.0833945 -0.21356 0
M  V30 4 S -1.39215 -1.2203 -0.964435 0
M  V30 5 C -3.03407 -0.545691 -0.769694 0
M  V30 6 N -4.1302 -1.1942 -1.24317 0
M  V30 7 C -5.36434 -0.680766 -1.09333 0
M  V30 8 N -6.53377 -1.33256 -1.57643 0
M  V30 9 N -5.53544 0.496688 -0.465042 0
M  V30 10 C -4.49044 1.16018 0.0111827 0
M  V30 11 N -3.26478 0.627213 -0.150288 0
M  V30 12 N -4.67025 2.4234 0.685629 0
M  V30 13 C -0.603806 0.107265 1.24116 0
M  V30 14 N 2.23353 0.198634 0.202799 0
M  V30 15 C 3.6095 -0.0562351 0.20993 0
M  V30 16 C 4.22708 -1.16896 -0.335513 0
M  V30 17 C 5.60123 -1.36538 -0.296533 0
M  V30 18 C 6.41887 -0.448907 0.294513 0
M  V30 19 C 5.83144 0.66209 0.842231 0
M  V30 20 C 4.47559 0.866974 0.80986 0
M  V30 21 Cl 3.81132 2.30274 1.52788 0
M  V30 22 Cl 8.13559 -0.738477 0.318901 0
M  V30 23 H -0.292907 0.903248 -0.699562 0
M  V30 24 H -6.92297 -1.14667 -2.5218 0
M  V30 25 H -6.99388 -2.01725 -0.932401 0
M  V30 26 H -4.82421 2.42137 1.71946 0
M  V30 27 H -4.64123 3.29315 0.124601 0
M  V30 28 H -1.09436 -0.807824 1.61165 0
M  V30 29 H 0.30502 0.249395 1.88601 0
M  V30 30 H -1.21273 1.024 1.3889 0
M  V30 31 H 1.9242 1.10542 0.667859 0
M  V30 32 H 3.64912 -1.92475 -0.812638 0
M  V30 33 H 6.00919 -2.24997 -0.739008 0
M  V30 34 H 6.45887 1.39718 1.31327 0
M  V30 END ATOM
M  V30 BEGIN BOND
M  V30 1 2 1 2
M  V30 2 1 2 3
M  V30 3 1 3 4
M  V30 4 1 4 5
M  V30 5 2 5 6
M  V30 6 1 6 7
M  V30 7 1 7 8
M  V30 8 2 7 9
M  V30 9 1 9 10
M  V30 10 2 10 11
M  V30 11 1 10 12
M  V30 12 1 3 13
M  V30 13 1 2 14
M  V30 14 1 14 15
M  V30 15 2 15 16
M  V30 16 1 16 17
M  V30 17 2 17 18
M  V30 18 1 18 19
M  V30 19 2 19 20
M  V30 20 1 20 21
M  V30 21 1 18 22
M  V30 22 1 11 5
M  V30 23 1 20 15
M  V30 24 1 3 23
M  V30 25 1 8 24
M  V30 26 1 8 25
M  V30 27 1 12 26
M  V30 28 1 12 27
M  V30 29 1 13 28
M  V30 30 1 13 29
M  V30 31 1 13 30
M  V30 32 1 14 31
M  V30 33 1 16 32
M  V30 34 1 17 33
M  V30 35 1 19 34
M  V30 END BOND
M  V30 END CTAB
M  END
