
     RDKit          3D

  0  0  0  0  0  0  0  0  0  0999 V3000
M  V30 BEGIN CTAB
M  V30 COUNTS 40 42 0 0 0
M  V30 BEGIN ATOM
M  V30 1 N -3.17382 -0.717952 -3.95598 0
M  V30 2 C -2.92181 -0.641259 -2.56031 0
M  V30 3 N -3.95775 -0.663169 -1.70703 0
M  V30 4 C -3.81919 -0.594718 -0.376816 0
M  V30 5 C -4.96355 -0.654113 0.547578 0
M  V30 6 C -4.82829 0.373819 1.60963 0
M  V30 7 C -3.44049 0.729584 1.96983 0
M  V30 8 C -2.40389 -0.360752 1.57579 0
M  V30 9 C -2.51624 -0.494764 0.118262 0
M  V30 10 C -1.44561 -0.472487 -0.699799 0
M  V30 11 N -1.68738 -0.547261 -2.05187 0
M  V30 12 C -0.0687057 -0.44962 -0.28052 0
M  V30 13 O 0.234241 -0.676736 0.911861 0
M  V30 14 N 0.985917 -0.165215 -1.21999 0
M  V30 15 C 2.33343 -0.135849 -0.813545 0
M  V30 16 C 2.70093 0.889532 0.225289 0
M  V30 17 C 4.16908 0.745976 0.4922 0
M  V30 18 N 4.90052 1.47865 1.36173 0
M  V30 19 N 6.16653 1.06476 1.32621 0
M  V30 20 C 6.27361 0.0662615 0.440771 0
M  V30 21 N 5.03746 -0.113761 -0.0595641 0
M  V30 22 N 7.42481 -0.680156 0.0695468 0
M  V30 23 H -3.13687 0.179119 -4.50449 0
M  V30 24 H -3.38752 -1.58764 -4.45533 0
M  V30 25 H -5.9387 -0.625753 0.0177369 0
M  V30 26 H -4.90542 -1.67654 1.03043 0
M  V30 27 H -5.43348 0.0720302 2.50536 0
M  V30 28 H -5.33034 1.31333 1.23114 0
M  V30 29 H -3.10297 1.67612 1.51812 0
M  V30 30 H -3.37505 0.848182 3.07296 0
M  V30 31 H -1.4714 0.0702505 1.96676 0
M  V30 32 H -2.71615 -1.27489 2.12053 0
M  V30 33 H 0.705017 0.0142258 -2.19746 0
M  V30 34 H 3.03573 -0.0185484 -1.69498 0
M  V30 35 H 2.67172 -1.12707 -0.380007 0
M  V30 36 H 2.46595 1.92568 -0.108353 0
M  V30 37 H 2.21444 0.63919 1.18483 0
M  V30 38 H 6.96097 1.46175 1.9054 0
M  V30 39 H 8.34544 -0.198262 0.0537665 0
M  V30 40 H 7.39886 -1.69037 -0.189689 0
M  V30 END ATOM
M  V30 BEGIN BOND
M  V30 1 1 1 2
M  V30 2 2 2 3
M  V30 3 1 3 4
M  V30 4 1 4 5
M  V30 5 1 5 6
M  V30 6 1 6 7
M  V30 7 1 7 8
M  V30 8 1 8 9
M  V30 9 1 9 10
M  V30 10 2 10 11
M  V30 11 1 10 12
M  V30 12 2 12 13
M  V30 13 1 12 14
M  V30 14 1 14 15
M  V30 15 1 15 16
M  V30 16 1 16 17
M  V30 17 2 17 18
M  V30 18 1 18 19
M  V30 19 1 19 20
M  V30 20 2 20 21
M  V30 21 1 20 22
M  V30 22 1 11 2
M  V30 23 1 21 17
M  V30 24 2 9 4
M  V30 25 1 1 23
M  V30 26 1 1 24
M  V30 27 1 5 25
M  V30 28 1 5 26
M  V30 29 1 6 27
M  V30 30 1 6 28
M  V30 31 1 7 29
M  V30 32 1 7 30
M  V30 33 1 8 31
M  V30 34 1 8 32
M  V30 35 1 14 33
M  V30 36 1 15 34
M  V30 37 1 15 35
M  V30 38 1 16 36
M  V30 39 1 16 37
M  V30 40 1 19 38
M  V30 41 1 22 39
M  V30 42 1 22 40
M  V30 END BOND
M  V30 END CTAB
M  END
