
     RDKit          3D

  0  0  0  0  0  0  0  0  0  0999 V3000
M  V30 BEGIN CTAB
M  V30 COUNTS 18 18 0 0 0
M  V30 BEGIN ATOM
M  V30 1 N -3.87577 0.983256 0.213729 0
M  V30 2 C -3.11849 -0.207706 -0.119118 0
M  V30 3 C -1.6443 0.0736375 -0.0569628 0
M  V30 4 S -0.752228 -1.46209 -0.485315 0
M  V30 5 C 1.00183 -1.06433 -0.394156 0
M  V30 6 N 2.03796 -1.86329 -0.622705 0
M  V30 7 N 3.21564 -1.42162 -0.513814 0
M  V30 8 C 3.42692 -0.162042 -0.171887 0
M  V30 9 S 1.79932 0.39543 -0.0033969 0
M  V30 10 N 4.64807 0.557389 0.0124376 0
M  V30 11 H -4.25322 0.871166 1.1612 0
M  V30 12 H -3.25457 1.83638 0.170807 0
M  V30 13 H -3.34411 -1.01889 0.595591 0
M  V30 14 H -3.36004 -0.469292 -1.16936 0
M  V30 15 H -1.37839 0.902306 -0.763053 0
M  V30 16 H -1.31405 0.400242 0.955773 0
M  V30 17 H 5.49891 0.0609006 0.257826 0
M  V30 18 H 4.66653 1.58856 -0.104382 0
M  V30 END ATOM
M  V30 BEGIN BOND
M  V30 1 1 1 2
M  V30 2 1 2 3
M  V30 3 1 3 4
M  V30 4 1 4 5
M  V30 5 2 5 6
M  V30 6 1 6 7
M  V30 7 2 7 8
M  V30 8 1 8 9
M  V30 9 1 8 10
M  V30 10 1 9 5
M  V30 11 1 1 11
M  V30 12 1 1 12
M  V30 13 1 2 13
M  V30 14 1 2 14
M  V30 15 1 3 15
M  V30 16 1 3 16
M  V30 17 1 10 17
M  V30 18 1 10 18
M  V30 END BOND
M  V30 END CTAB
M  END
