
     RDKit          3D

  0  0  0  0  0  0  0  0  0  0999 V3000
M  V30 BEGIN CTAB
M  V30 COUNTS 43 44 0 0 0
M  V30 BEGIN ATOM
M  V30 1 N -3.84598 2.3358 1.32153 0
M  V30 2 C -2.61147 2.06339 0.607909 0
M  V30 3 C -2.47201 0.568095 0.484964 0
M  V30 4 C -3.60964 -0.0555138 -0.262304 0
M  V30 5 C -3.68996 -1.51378 0.168329 0
M  V30 6 C -2.30703 -1.9673 0.523406 0
M  V30 7 C -1.23886 -1.3506 -0.36069 0
M  V30 8 C -1.17878 0.157061 -0.169497 0
M  V30 9 N -0.968757 0.748962 -1.45085 0
M  V30 10 S 0.529359 1.57773 -1.6058 0
M  V30 11 O 0.671807 2.66049 -0.55566 0
M  V30 12 O 0.615378 2.13555 -2.99063 0
M  V30 13 C 1.89413 0.504154 -1.38924 0
M  V30 14 C 2.46996 -0.172724 -2.45029 0
M  V30 15 C 3.55051 -1.01627 -2.24716 0
M  V30 16 C 4.09308 -1.21616 -0.994766 0
M  V30 17 C 3.52496 -0.545486 0.0668035 0
M  V30 18 C 2.44568 0.296061 -0.14127 0
M  V30 19 S 4.20334 -0.786457 1.67839 0
M  V30 20 O 4.66388 -2.1839 1.87332 0
M  V30 21 O 3.09797 -0.522847 2.66155 0
M  V30 22 N 5.44968 0.374259 1.98564 0
M  V30 23 H -4.44219 3.01649 0.835154 0
M  V30 24 H -4.32915 1.48372 1.64407 0
M  V30 25 H -2.71118 2.48519 -0.402757 0
M  V30 26 H -1.79416 2.46326 1.2049 0
M  V30 27 H -2.46804 0.15585 1.51471 0
M  V30 28 H -3.34071 -0.000871698 -1.35784 0
M  V30 29 H -4.5696 0.472052 -0.138988 0
M  V30 30 H -4.29048 -1.50484 1.12236 0
M  V30 31 H -4.19079 -2.13947 -0.571639 0
M  V30 32 H -2.26568 -3.07008 0.316973 0
M  V30 33 H -2.04103 -1.83775 1.58074 0
M  V30 34 H -0.284817 -1.81009 -0.103369 0
M  V30 35 H -1.47167 -1.58798 -1.40503 0
M  V30 36 H -0.297109 0.37263 0.460038 0
M  V30 37 H -1.76942 1.28461 -1.81434 0
M  V30 38 H 2.0364 -0.00831722 -3.42698 0
M  V30 39 H 3.99459 -1.54236 -3.08649 0
M  V30 40 H 4.93681 -1.88178 -0.871879 0
M  V30 41 H 2.04849 0.792162 0.74007 0
M  V30 42 H 6.24739 -0.131145 2.43151 0
M  V30 43 H 5.71512 0.898201 1.12598 0
M  V30 END ATOM
M  V30 BEGIN BOND
M  V30 1 1 1 2
M  V30 2 1 2 3
M  V30 3 1 3 4
M  V30 4 1 4 5
M  V30 5 1 5 6
M  V30 6 1 6 7
M  V30 7 1 7 8
M  V30 8 1 8 9
M  V30 9 1 9 10
M  V30 10 2 10 11
M  V30 11 2 10 12
M  V30 12 1 10 13
M  V30 13 2 13 14
M  V30 14 1 14 15
M  V30 15 2 15 16
M  V30 16 1 16 17
M  V30 17 2 17 18
M  V30 18 1 17 19
M  V30 19 2 19 20
M  V30 20 2 19 21
M  V30 21 1 19 22
M  V30 22 1 8 3
M  V30 23 1 18 13
M  V30 24 1 1 23
M  V30 25 1 1 24
M  V30 26 1 2 25
M  V30 27 1 2 26
M  V30 28 1 3 27
M  V30 29 1 4 28
M  V30 30 1 4 29
M  V30 31 1 5 30
M  V30 32 1 5 31
M  V30 33 1 6 32
M  V30 34 1 6 33
M  V30 35 1 7 34
M  V30 36 1 7 35
M  V30 37 1 8 36
M  V30 38 1 9 37
M  V30 39 1 14 38
M  V30 40 1 15 39
M  V30 41 1 16 40
M  V30 42 1 18 41
M  V30 43 1 22 42
M  V30 44 1 22 43
M  V30 END BOND
M  V30 END CTAB
M  END
