
     RDKit          3D

  0  0  0  0  0  0  0  0  0  0999 V3000
M  V30 BEGIN CTAB
M  V30 COUNTS 33 34 0 0 0
M  V30 BEGIN ATOM
M  V30 1 N 4.61191 1.75916 1.59229 0
M  V30 2 C 3.53673 1.09514 0.945203 0
M  V30 3 C 2.25141 1.14491 1.49281 0
M  V30 4 C 1.2208 0.494465 0.85075 0
M  V30 5 C 1.42933 -0.206502 -0.323218 0
M  V30 6 C 2.6925 -0.262442 -0.872388 0
M  V30 7 C 3.71274 0.388318 -0.226048 0
M  V30 8 C 2.92382 -1.0095 -2.12686 0
M  V30 9 O 1.98796 -1.60163 -2.71206 0
M  V30 10 O 4.20599 -1.04757 -2.65515 0
M  V30 11 S 0.113925 -1.04945 -1.16267 0
M  V30 12 C -1.44102 -0.878874 -0.327325 0
M  V30 13 C -1.82468 -1.79855 0.632811 0
M  V30 14 C -3.02647 -1.69689 1.30214 0
M  V30 15 C -3.8941 -0.65483 1.02595 0
M  V30 16 C -3.49318 0.253227 0.0641573 0
M  V30 17 C -2.30628 0.174991 -0.614263 0
M  V30 18 C -1.91728 1.16192 -1.63045 0
M  V30 19 O -0.85162 1.10976 -2.25382 0
M  V30 20 O -2.80492 2.19288 -1.88538 0
M  V30 21 N -5.13137 -0.536393 1.70424 0
M  V30 22 H 4.61589 1.79768 2.63713 0
M  V30 23 H 5.37575 2.19498 1.01348 0
M  V30 24 H 2.10482 1.69797 2.41248 0
M  V30 25 H 0.239864 0.553002 1.30084 0
M  V30 26 H 4.69366 0.343737 -0.654307 0
M  V30 27 H 4.32024 -1.07497 -3.66164 0
M  V30 28 H -1.16739 -2.63734 0.880743 0
M  V30 29 H -3.30835 -2.42604 2.04949 0
M  V30 30 H -4.15618 1.07681 -0.168301 0
M  V30 31 H -3.57599 1.9836 -2.51706 0
M  V30 32 H -5.25022 0.21493 2.40671 0
M  V30 33 H -5.88828 -1.2064 1.47969 0
M  V30 END ATOM
M  V30 BEGIN BOND
M  V30 1 1 1 2
M  V30 2 2 2 3
M  V30 3 1 3 4
M  V30 4 2 4 5
M  V30 5 1 5 6
M  V30 6 2 6 7
M  V30 7 1 6 8
M  V30 8 2 8 9
M  V30 9 1 8 10
M  V30 10 1 5 11
M  V30 11 1 11 12
M  V30 12 2 12 13
M  V30 13 1 13 14
M  V30 14 2 14 15
M  V30 15 1 15 16
M  V30 16 2 16 17
M  V30 17 1 17 18
M  V30 18 2 18 19
M  V30 19 1 18 20
M  V30 20 1 15 21
M  V30 21 1 7 2
M  V30 22 1 17 12
M  V30 23 1 1 22
M  V30 24 1 1 23
M  V30 25 1 3 24
M  V30 26 1 4 25
M  V30 27 1 7 26
M  V30 28 1 10 27
M  V30 29 1 13 28
M  V30 30 1 14 29
M  V30 31 1 16 30
M  V30 32 1 20 31
M  V30 33 1 21 32
M  V30 34 1 21 33
M  V30 END BOND
M  V30 END CTAB
M  END
