
     RDKit          3D

  0  0  0  0  0  0  0  0  0  0999 V3000
M  V30 BEGIN CTAB
M  V30 COUNTS 38 39 0 0 0
M  V30 BEGIN ATOM
M  V30 1 C -3.65312 2.76772 -0.339099 0
M  V30 2 C -3.99903 1.90606 0.839476 0
M  V30 3 O -3.68685 0.570299 0.619395 0
M  V30 4 C -2.38752 0.110355 0.401241 0
M  V30 5 C -1.27514 0.907588 0.403826 0
M  V30 6 C -0.0296039 0.370635 0.175731 0
M  V30 7 C 0.1788 -0.951772 -0.0605786 0
M  V30 8 C 1.49576 -1.49885 -0.299633 0
M  V30 9 C 2.61869 -0.574536 -0.334789 0
M  V30 10 C 3.23001 -0.120525 -1.48252 0
M  V30 11 N 4.24878 0.731051 -1.41103 0
M  V30 12 C 4.74814 1.20235 -0.253013 0
M  V30 13 N 5.83796 2.1136 -0.205717 0
M  V30 14 N 4.15379 0.761698 0.879712 0
M  V30 15 C 3.11928 -0.10017 0.871599 0
M  V30 16 N 2.56485 -0.508849 2.12537 0
M  V30 17 C -0.932105 -1.76404 -0.0650107 0
M  V30 18 C -2.19781 -1.26213 0.159192 0
M  V30 19 O -3.33054 -2.0514 0.160784 0
M  V30 20 C -3.31356 -3.4409 -0.0664591 0
M  V30 21 H -3.08175 3.67415 -0.0325796 0
M  V30 22 H -3.02864 2.24731 -1.10302 0
M  V30 23 H -4.60722 3.11554 -0.808995 0
M  V30 24 H -5.08824 2.05714 1.06296 0
M  V30 25 H -3.48899 2.25801 1.76938 0
M  V30 26 H -1.38912 1.98089 0.604361 0
M  V30 27 H 0.836304 1.06087 0.183807 0
M  V30 28 H 1.69027 -2.29596 0.480557 0
M  V30 29 H 1.53279 -2.08908 -1.26479 0
M  V30 30 H 2.82174 -0.505005 -2.41681 0
M  V30 31 H 6.82003 1.78017 -0.0992588 0
M  V30 32 H 5.69652 3.14471 -0.275343 0
M  V30 33 H 2.03751 0.176689 2.7391 0
M  V30 34 H 2.71356 -1.50731 2.38708 0
M  V30 35 H -0.861185 -2.83001 -0.244608 0
M  V30 36 H -4.34488 -3.83648 -0.168689 0
M  V30 37 H -2.83169 -3.57424 -1.07974 0
M  V30 38 H -2.81779 -4.02557 0.707659 0
M  V30 END ATOM
M  V30 BEGIN BOND
M  V30 1 1 1 2
M  V30 2 1 2 3
M  V30 3 1 3 4
M  V30 4 2 4 5
M  V30 5 1 5 6
M  V30 6 2 6 7
M  V30 7 1 7 8
M  V30 8 1 8 9
M  V30 9 2 9 10
M  V30 10 1 10 11
M  V30 11 2 11 12
M  V30 12 1 12 13
M  V30 13 1 12 14
M  V30 14 2 14 15
M  V30 15 1 15 16
M  V30 16 1 7 17
M  V30 17 2 17 18
M  V30 18 1 18 19
M  V30 19 1 19 20
M  V30 20 1 18 4
M  V30 21 1 15 9
M  V30 22 1 1 21
M  V30 23 1 1 22
M  V30 24 1 1 23
M  V30 25 1 2 24
M  V30 26 1 2 25
M  V30 27 1 5 26
M  V30 28 1 6 27
M  V30 29 1 8 28
M  V30 30 1 8 29
M  V30 31 1 10 30
M  V30 32 1 13 31
M  V30 33 1 13 32
M  V30 34 1 16 33
M  V30 35 1 16 34
M  V30 36 1 17 35
M  V30 37 1 20 36
M  V30 38 1 20 37
M  V30 39 1 20 38
M  V30 END BOND
M  V30 END CTAB
M  END
