
     RDKit          3D

  0  0  0  0  0  0  0  0  0  0999 V3000
M  V30 BEGIN CTAB
M  V30 COUNTS 17 17 0 0 0
M  V30 BEGIN ATOM
M  V30 1 O -0.914797 2.87949 0.01006 0
M  V30 2 C -0.511496 1.55071 -0.0196393 0
M  V30 3 C -1.39904 0.499324 -0.158457 0
M  V30 4 C -1.0017 -0.822318 -0.188364 0
M  V30 5 N -1.95665 -1.88408 -0.334167 0
M  V30 6 C 0.353239 -1.06737 -0.07146 0
M  V30 7 C 1.29124 -0.063918 0.0697177 0
M  V30 8 C 0.840641 1.25485 0.0943861 0
M  V30 9 N 2.68015 -0.337956 0.188359 0
M  V30 10 Cl 0.901363 -2.72242 -0.104064 0
M  V30 11 H -1.15616 3.37716 0.834645 0
M  V30 12 H -2.46885 0.72554 -0.249086 0
M  V30 13 H -2.00285 -2.48676 -1.18488 0
M  V30 14 H -2.64214 -2.07386 0.437064 0
M  V30 15 H 1.57731 2.05277 0.205766 0
M  V30 16 H 3.20264 -0.825281 -0.568779 0
M  V30 17 H 3.2071 -0.0558888 1.0389 0
M  V30 END ATOM
M  V30 BEGIN BOND
M  V30 1 1 1 2
M  V30 2 2 2 3
M  V30 3 1 3 4
M  V30 4 1 4 5
M  V30 5 2 4 6
M  V30 6 1 6 7
M  V30 7 2 7 8
M  V30 8 1 7 9
M  V30 9 1 6 10
M  V30 10 1 8 2
M  V30 11 1 1 11
M  V30 12 1 3 12
M  V30 13 1 5 13
M  V30 14 1 5 14
M  V30 15 1 8 15
M  V30 16 1 9 16
M  V30 17 1 9 17
M  V30 END BOND
M  V30 END CTAB
M  END
