
     RDKit          3D

  0  0  0  0  0  0  0  0  0  0999 V3000
M  V30 BEGIN CTAB
M  V30 COUNTS 56 58 0 0 0
M  V30 BEGIN ATOM
M  V30 1 C -8.7037 1.58199 -1.7319 0
M  V30 2 N -8.22834 0.363138 -0.981344 0
M  V30 3 C -9.2228 -0.632029 -0.74332 0
M  V30 4 C -6.88438 0.362436 -0.642744 0
M  V30 5 O -6.24806 1.43441 -1.06533 0
M  V30 6 C -6.07448 -0.593619 0.0790947 0
M  V30 7 C -4.68739 -0.36021 0.162076 0
M  V30 8 C -3.80016 -1.15775 0.820712 0
M  V30 9 N -2.40352 -0.986971 0.900363 0
M  V30 10 C -1.6527 -0.154392 0.0553975 0
M  V30 11 O -2.08996 0.550924 -0.883316 0
M  V30 12 N -0.211999 -0.0597042 0.237208 0
M  V30 13 C 0.519656 0.788354 -0.645428 0
M  V30 14 C 1.97128 0.696659 -0.362217 0
M  V30 15 C 2.51763 0.475268 0.879872 0
M  V30 16 C 3.89718 0.398569 1.04882 0
M  V30 17 C 4.78053 0.537078 0.00194914 0
M  V30 18 C 4.23848 0.760851 -1.25419 0
M  V30 19 C 2.86928 0.835831 -1.41349 0
M  V30 20 C 6.22245 0.445444 0.207335 0
M  V30 21 C 6.9019 1.51047 0.772859 0
M  V30 22 N 6.24188 2.69736 1.18039 0
M  V30 23 N 8.23224 1.42378 0.94929 0
M  V30 24 C 8.94624 0.334113 0.596724 0
M  V30 25 N 10.3554 0.318459 0.814958 0
M  V30 26 N 8.28746 -0.688668 0.0526899 0
M  V30 27 C 6.94093 -0.678457 -0.1588 0
M  V30 28 C 6.26604 -1.84917 -0.770076 0
M  V30 29 C -4.36736 -2.28731 1.45074 0
M  V30 30 C -5.70932 -2.54641 1.39268 0
M  V30 31 C -6.58243 -1.6935 0.699414 0
M  V30 32 H -7.86284 2.03917 -2.25475 0
M  V30 33 H -9.16652 2.22238 -0.951827 0
M  V30 34 H -9.50147 1.27257 -2.43667 0
M  V30 35 H -8.95323 -1.65376 -1.11776 0
M  V30 36 H -9.49608 -0.692088 0.313728 0
M  V30 37 H -10.1289 -0.370117 -1.36169 0
M  V30 38 H -4.30591 0.520196 -0.322091 0
M  V30 39 H -1.86 -1.51714 1.64785 0
M  V30 40 H 0.236289 -0.598245 0.986213 0
M  V30 41 H 0.343633 0.550216 -1.72221 0
M  V30 42 H 0.146642 1.84511 -0.494267 0
M  V30 43 H 1.86209 0.364947 1.72478 0
M  V30 44 H 4.31857 0.22589 2.03696 0
M  V30 45 H 4.90784 0.872702 -2.08764 0
M  V30 46 H 2.43087 1.01151 -2.40481 0
M  V30 47 H 5.20134 2.75316 1.27908 0
M  V30 48 H 6.7938 3.55176 1.39313 0
M  V30 49 H 10.8013 1.05821 1.39692 0
M  V30 50 H 10.9552 -0.425137 0.398588 0
M  V30 51 H 7.05787 -2.58905 -1.05361 0
M  V30 52 H 5.57761 -2.37399 -0.087006 0
M  V30 53 H 5.75135 -1.57356 -1.72804 0
M  V30 54 H -3.67834 -2.93516 1.98299 0
M  V30 55 H -6.13284 -3.41761 1.88016 0
M  V30 56 H -7.62028 -1.96891 0.713321 0
M  V30 END ATOM
M  V30 BEGIN BOND
M  V30 1 1 1 2
M  V30 2 1 2 3
M  V30 3 1 2 4
M  V30 4 2 4 5
M  V30 5 1 4 6
M  V30 6 2 6 7
M  V30 7 1 7 8
M  V30 8 1 8 9
M  V30 9 1 9 10
M  V30 10 2 10 11
M  V30 11 1 10 12
M  V30 12 1 12 13
M  V30 13 1 13 14
M  V30 14 2 14 15
M  V30 15 1 15 16
M  V30 16 2 16 17
M  V30 17 1 17 18
M  V30 18 2 18 19
M  V30 19 1 17 20
M  V30 20 2 20 21
M  V30 21 1 21 22
M  V30 22 1 21 23
M  V30 23 2 23 24
M  V30 24 1 24 25
M  V30 25 1 24 26
M  V30 26 2 26 27
M  V30 27 1 27 28
M  V30 28 2 8 29
M  V30 29 1 29 30
M  V30 30 2 30 31
M  V30 31 1 31 6
M  V30 32 1 19 14
M  V30 33 1 27 20
M  V30 34 1 1 32
M  V30 35 1 1 33
M  V30 36 1 1 34
M  V30 37 1 3 35
M  V30 38 1 3 36
M  V30 39 1 3 37
M  V30 40 1 7 38
M  V30 41 1 9 39
M  V30 42 1 12 40
M  V30 43 1 13 41
M  V30 44 1 13 42
M  V30 45 1 15 43
M  V30 46 1 16 44
M  V30 47 1 18 45
M  V30 48 1 19 46
M  V30 49 1 22 47
M  V30 50 1 22 48
M  V30 51 1 25 49
M  V30 52 1 25 50
M  V30 53 1 28 51
M  V30 54 1 28 52
M  V30 55 1 28 53
M  V30 56 1 29 54
M  V30 57 1 30 55
M  V30 58 1 31 56
M  V30 END BOND
M  V30 END CTAB
M  END
