
     RDKit          3D

  0  0  0  0  0  0  0  0  0  0999 V3000
M  V30 BEGIN CTAB
M  V30 COUNTS 36 37 0 0 0
M  V30 BEGIN ATOM
M  V30 1 O -0.142551 -0.80581 -0.504477 0
M  V30 2 C 0.0491869 -0.178199 0.562823 0
M  V30 3 C 1.22528 0.707668 0.805366 0
M  V30 4 O 2.04066 0.718332 -0.310282 0
M  V30 5 C 3.3312 0.31594 -0.469554 0
M  V30 6 C 4.04049 -0.200201 0.57357 0
M  V30 7 C 5.35073 -0.594344 0.356707 0
M  V30 8 C 5.96815 -0.490435 -0.855674 0
M  V30 9 C 5.21554 0.0389147 -1.89232 0
M  V30 10 C 3.92838 0.431001 -1.69802 0
M  V30 11 Cl 5.95437 0.198104 -3.47665 0
M  V30 12 C 0.785889 2.12717 1.1067 0
M  V30 13 O -0.867427 -0.297132 1.58934 0
M  V30 14 C -2.02284 -1.06692 1.56056 0
M  V30 15 C -2.99966 -0.720853 0.524021 0
M  V30 16 N -4.08022 -1.51934 0.416569 0
M  V30 17 C -5.06017 -1.33105 -0.478967 0
M  V30 18 N -6.18485 -2.18334 -0.572247 0
M  V30 19 N -4.92754 -0.266464 -1.31123 0
M  V30 20 C -3.8683 0.559647 -1.24384 0
M  V30 21 N -2.92145 0.311799 -0.320891 0
M  V30 22 N -3.74826 1.67721 -2.1318 0
M  V30 23 H 1.77945 0.29109 1.66922 0
M  V30 24 H 3.67273 -0.33622 1.57991 0
M  V30 25 H 5.9475 -1.01361 1.17694 0
M  V30 26 H 6.99089 -0.792932 -1.04477 0
M  V30 27 H 3.38299 0.840842 -2.54986 0
M  V30 28 H 1.50863 2.5313 1.84755 0
M  V30 29 H -0.219578 2.18511 1.54425 0
M  V30 30 H 0.859185 2.77933 0.21013 0
M  V30 31 H -2.5396 -0.919258 2.55315 0
M  V30 32 H -1.83618 -2.15722 1.49923 0
M  V30 33 H -6.10621 -3.19861 -0.395845 0
M  V30 34 H -7.10462 -1.78296 -0.821974 0
M  V30 35 H -4.31856 1.6964 -2.98587 0
M  V30 36 H -3.08322 2.44503 -1.88811 0
M  V30 END ATOM
M  V30 BEGIN BOND
M  V30 1 2 1 2
M  V30 2 1 2 3
M  V30 3 1 3 4
M  V30 4 1 4 5
M  V30 5 2 5 6
M  V30 6 1 6 7
M  V30 7 2 7 8
M  V30 8 1 8 9
M  V30 9 2 9 10
M  V30 10 1 9 11
M  V30 11 1 3 12
M  V30 12 1 2 13
M  V30 13 1 13 14
M  V30 14 1 14 15
M  V30 15 2 15 16
M  V30 16 1 16 17
M  V30 17 1 17 18
M  V30 18 2 17 19
M  V30 19 1 19 20
M  V30 20 2 20 21
M  V30 21 1 20 22
M  V30 22 1 10 5
M  V30 23 1 21 15
M  V30 24 1 3 23
M  V30 25 1 6 24
M  V30 26 1 7 25
M  V30 27 1 8 26
M  V30 28 1 10 27
M  V30 29 1 12 28
M  V30 30 1 12 29
M  V30 31 1 12 30
M  V30 32 1 14 31
M  V30 33 1 14 32
M  V30 34 1 18 33
M  V30 35 1 18 34
M  V30 36 1 22 35
M  V30 37 1 22 36
M  V30 END BOND
M  V30 END CTAB
M  END
