
     RDKit          3D

  0  0  0  0  0  0  0  0  0  0999 V3000
M  V30 BEGIN CTAB
M  V30 COUNTS 22 22 0 0 0
M  V30 BEGIN ATOM
M  V30 1 F -3.93228 -0.784769 -0.318251 0
M  V30 2 C -2.5772 -0.786857 -0.521293 0
M  V30 3 C -1.86069 0.010507 0.569072 0 CFG=1
M  V30 4 C -0.404642 -0.0224486 0.304818 0
M  V30 5 C 0.428602 -0.792133 1.09705 0
M  V30 6 C 1.77554 -0.818799 0.847752 0
M  V30 7 C 2.34936 -0.0987887 -0.177488 0
M  V30 8 C 1.4951 0.662758 -0.955082 0
M  V30 9 C 0.13103 0.710037 -0.728091 0
M  V30 10 N 3.74245 -0.132467 -0.427662 0
M  V30 11 N -2.37934 1.34609 0.524201 0
M  V30 12 H -2.13763 -1.80828 -0.495099 0
M  V30 13 H -2.34389 -0.307251 -1.49511 0
M  V30 14 H -2.07866 -0.41419 1.56522 0
M  V30 15 H 0.00136498 -1.35821 1.8981 0
M  V30 16 H 2.41888 -1.42035 1.46858 0
M  V30 17 H 1.88002 1.25839 -1.78437 0
M  V30 18 H -0.524105 1.30939 -1.34369 0
M  V30 19 H 4.089 -0.0548165 -1.40322 0
M  V30 20 H 4.43987 -0.233294 0.338483 0
M  V30 21 H -2.28871 1.88551 1.39015 0
M  V30 22 H -2.22406 1.84998 -0.354066 0
M  V30 END ATOM
M  V30 BEGIN BOND
M  V30 1 1 1 2
M  V30 2 1 2 3
M  V30 3 1 3 4
M  V30 4 2 4 5
M  V30 5 1 5 6
M  V30 6 2 6 7
M  V30 7 1 7 8
M  V30 8 2 8 9
M  V30 9 1 7 10
M  V30 10 1 3 11
M  V30 11 1 9 4
M  V30 12 1 2 12
M  V30 13 1 2 13
M  V30 14 1 3 14 CFG=1
M  V30 15 1 5 15
M  V30 16 1 6 16
M  V30 17 1 8 17
M  V30 18 1 9 18
M  V30 19 1 10 19
M  V30 20 1 10 20
M  V30 21 1 11 21
M  V30 22 1 11 22
M  V30 END BOND
M  V30 END CTAB
M  END
