
     RDKit          3D

  0  0  0  0  0  0  0  0  0  0999 V3000
M  V30 BEGIN CTAB
M  V30 COUNTS 55 58 0 0 0
M  V30 BEGIN ATOM
M  V30 1 N 7.04652 2.95754 -0.105188 0
M  V30 2 C 6.87859 1.88807 -1.00427 0
M  V30 3 C 6.95209 0.577978 -0.233386 0
M  V30 4 C 6.77461 -0.563866 -1.17848 0
M  V30 5 O 5.60751 -0.624886 -1.89221 0
M  V30 6 C 4.30848 -0.742176 -1.57448 0
M  V30 7 C 3.86688 -0.848565 -0.287603 0
M  V30 8 C 2.49543 -0.964655 -0.0531773 0
M  V30 9 C 1.55852 -0.978226 -1.05379 0
M  V30 10 C 2.0418 -0.86894 -2.34505 0
M  V30 11 C 3.38366 -0.753183 -2.60943 0
M  V30 12 C 0.133721 -1.09356 -0.873987 0
M  V30 13 O -0.655274 -1.13634 -1.85034 0
M  V30 14 N -0.424434 -1.16252 0.417852 0
M  V30 15 C -1.86026 -1.27951 0.644429 0 CFG=1
M  V30 16 C -2.13263 -2.44069 1.57993 0
M  V30 17 C -3.34504 -1.98265 2.39624 0
M  V30 18 C -3.59497 -0.556532 2.03544 0 CFG=1
M  V30 19 C -2.24317 -0.0972051 1.52946 0 CFG=1
M  V30 20 O -1.32965 0.114329 2.53227 0
M  V30 21 N -4.63569 -0.371839 1.07216 0
M  V30 22 C -5.38423 -1.27366 0.429081 0
M  V30 23 N -6.24872 -0.619131 -0.395694 0
M  V30 24 C -6.04696 0.710538 -0.274959 0
M  V30 25 C -5.03288 0.851512 0.648539 0
M  V30 26 N -4.64452 2.11258 0.943668 0
M  V30 27 C -5.22482 3.1685 0.360089 0
M  V30 28 N -6.20179 3.02508 -0.529177 0
M  V30 29 C -6.64694 1.80536 -0.878485 0
M  V30 30 N -7.69934 1.63233 -1.83572 0
M  V30 31 H 7.75742 3.59979 -0.233319 0
M  V30 32 H 6.65907 2.86963 0.79614 0
M  V30 33 H 7.74746 1.89322 -1.72076 0
M  V30 34 H 5.95429 1.96928 -1.5873 0
M  V30 35 H 6.32502 0.598125 0.64983 0
M  V30 36 H 8.012 0.485638 0.164162 0
M  V30 37 H 7.65269 -0.544633 -1.89598 0
M  V30 38 H 6.87906 -1.53904 -0.607155 0
M  V30 39 H 4.51748 -0.857159 0.568752 0
M  V30 40 H 2.16939 -1.04801 0.975619 0
M  V30 41 H 1.35134 -0.873559 -3.17835 0
M  V30 42 H 3.73079 -0.668325 -3.65236 0
M  V30 43 H 0.204164 -1.12874 1.24475 0
M  V30 44 H -2.43149 -1.30988 -0.279152 0
M  V30 45 H -2.37145 -3.35806 1.00125 0
M  V30 46 H -1.26207 -2.64899 2.23288 0
M  V30 47 H -4.19013 -2.66518 2.17654 0
M  V30 48 H -3.05481 -2.05653 3.48168 0
M  V30 49 H -3.7982 0.0306092 2.96599 0
M  V30 50 H -2.3583 0.798762 0.861372 0
M  V30 51 H -0.871999 0.983839 2.39057 0
M  V30 52 H -5.33662 -2.32959 0.523758 0
M  V30 53 H -4.88666 4.15648 0.622487 0
M  V30 54 H -8.67622 1.40305 -1.57303 0
M  V30 55 H -7.41868 1.75359 -2.84196 0
M  V30 END ATOM
M  V30 BEGIN BOND
M  V30 1 1 1 2
M  V30 2 1 2 3
M  V30 3 1 3 4
M  V30 4 1 4 5
M  V30 5 1 5 6
M  V30 6 2 6 7
M  V30 7 1 7 8
M  V30 8 2 8 9
M  V30 9 1 9 10
M  V30 10 2 10 11
M  V30 11 1 9 12
M  V30 12 2 12 13
M  V30 13 1 12 14
M  V30 14 1 14 15
M  V30 15 1 15 16
M  V30 16 1 16 17
M  V30 17 1 17 18
M  V30 18 1 18 19
M  V30 19 1 19 20
M  V30 20 1 18 21
M  V30 21 1 21 22
M  V30 22 2 22 23
M  V30 23 1 23 24
M  V30 24 2 24 25
M  V30 25 1 25 26
M  V30 26 2 26 27
M  V30 27 1 27 28
M  V30 28 2 28 29
M  V30 29 1 29 30
M  V30 30 1 11 6
M  V30 31 1 19 15
M  V30 32 1 25 21
M  V30 33 1 29 24
M  V30 34 1 1 31
M  V30 35 1 1 32
M  V30 36 1 2 33
M  V30 37 1 2 34
M  V30 38 1 3 35
M  V30 39 1 3 36
M  V30 40 1 4 37
M  V30 41 1 4 38
M  V30 42 1 7 39
M  V30 43 1 8 40
M  V30 44 1 10 41
M  V30 45 1 11 42
M  V30 46 1 14 43
M  V30 47 1 15 44 CFG=3
M  V30 48 1 16 45
M  V30 49 1 16 46
M  V30 50 1 17 47
M  V30 51 1 17 48
M  V30 52 1 18 49 CFG=1
M  V30 53 1 19 50 CFG=3
M  V30 54 1 20 51
M  V30 55 1 22 52
M  V30 56 1 27 53
M  V30 57 1 30 54
M  V30 58 1 30 55
M  V30 END BOND
M  V30 END CTAB
M  END
