
     RDKit          3D

  0  0  0  0  0  0  0  0  0  0999 V3000
M  V30 BEGIN CTAB
M  V30 COUNTS 57 61 0 0 0
M  V30 BEGIN ATOM
M  V30 1 C -4.6187 -1.40909 -4.69517 0
M  V30 2 C -4.01225 -0.922314 -3.43312 0
M  V30 3 N -4.63087 -0.350415 -2.41075 0
M  V30 4 N -3.79761 -0.03254 -1.43619 0
M  V30 5 C -2.57718 -0.410184 -1.83074 0
M  V30 6 C -2.68676 -0.972005 -3.08252 0
M  V30 7 C -1.32185 -0.2524 -1.05164 0
M  V30 8 O -1.43618 0.269415 0.0658802 0
M  V30 9 N -0.0988441 -0.670743 -1.56026 0
M  V30 10 C 1.18191 -0.607486 -0.979072 0
M  V30 11 C 1.47898 -0.136251 0.277026 0
M  V30 12 C 2.76739 -0.0964696 0.797609 0
M  V30 13 C 3.82804 -0.541701 0.0516203 0
M  V30 14 C 3.57671 -1.02241 -1.21114 0
M  V30 15 C 2.29794 -1.05204 -1.70423 0
M  V30 16 C 5.18161 -0.556521 0.54667 0
M  V30 17 C 6.10412 0.389975 0.199126 0
M  V30 18 C 7.41405 0.338971 0.67178 0
M  V30 19 C 7.80064 -0.683365 1.51022 0
M  V30 20 C 6.90016 -1.65004 1.88033 0
M  V30 21 C 5.59459 -1.58488 1.39848 0
M  V30 22 S 5.67676 1.71201 -0.827557 0
M  V30 23 N 4.34985 2.6065 -0.129538 0
M  V30 24 O 6.85831 2.68356 -0.909213 0
M  V30 25 O 5.35679 1.24911 -2.20691 0
M  V30 26 C -4.14536 0.602902 -0.187176 0
M  V30 27 C -4.46646 -0.184378 0.891754 0
M  V30 28 C -4.81384 0.376869 2.12545 0
M  V30 29 C -5.14273 -0.380891 3.22673 0
M  V30 30 N -5.12909 -1.79085 3.11031 0
M  V30 31 N -5.47551 0.167023 4.40328 0
M  V30 32 C -5.50053 1.50358 4.55362 0
M  V30 33 N -5.18118 2.26855 3.48636 0
M  V30 34 C -4.84174 1.74631 2.28776 0
M  V30 35 C -4.5182 2.54403 1.20103 0
M  V30 36 C -4.17756 1.96237 -0.0107719 0
M  V30 37 H -5.54204 -0.795532 -4.85569 0
M  V30 38 H -4.9086 -2.46526 -4.66423 0
M  V30 39 H -3.96469 -1.25456 -5.57552 0
M  V30 40 H -1.86281 -1.38045 -3.68084 0
M  V30 41 H -0.137418 -1.1066 -2.53942 0
M  V30 42 H 0.684512 0.231327 0.924346 0
M  V30 43 H 2.91476 0.293383 1.80548 0
M  V30 44 H 4.38875 -1.4026 -1.85093 0
M  V30 45 H 2.16021 -1.43834 -2.69762 0
M  V30 46 H 8.13343 1.083 0.394598 0
M  V30 47 H 8.81167 -0.766399 1.9062 0
M  V30 48 H 7.12509 -2.46939 2.52419 0
M  V30 49 H 4.84589 -2.32429 1.6613 0
M  V30 50 H 4.74275 3.35147 0.498366 0
M  V30 51 H 3.79333 3.09536 -0.86157 0
M  V30 52 H -4.45037 -1.25443 0.786057 0
M  V30 53 H -5.61318 -2.23746 2.30058 0
M  V30 54 H -4.65972 -2.43458 3.79061 0
M  V30 55 H -5.77394 1.92944 5.51945 0
M  V30 56 H -4.54913 3.60373 1.35841 0
M  V30 57 H -3.93391 2.62802 -0.8227 0
M  V30 END ATOM
M  V30 BEGIN BOND
M  V30 1 1 1 2
M  V30 2 2 2 3
M  V30 3 1 3 4
M  V30 4 1 4 5
M  V30 5 2 5 6
M  V30 6 1 5 7
M  V30 7 2 7 8
M  V30 8 1 7 9
M  V30 9 1 9 10
M  V30 10 2 10 11
M  V30 11 1 11 12
M  V30 12 2 12 13
M  V30 13 1 13 14
M  V30 14 2 14 15
M  V30 15 1 13 16
M  V30 16 2 16 17
M  V30 17 1 17 18
M  V30 18 2 18 19
M  V30 19 1 19 20
M  V30 20 2 20 21
M  V30 21 1 17 22
M  V30 22 1 22 23
M  V30 23 2 22 24
M  V30 24 2 22 25
M  V30 25 1 4 26
M  V30 26 2 26 27
M  V30 27 1 27 28
M  V30 28 2 28 29
M  V30 29 1 29 30
M  V30 30 1 29 31
M  V30 31 2 31 32
M  V30 32 1 32 33
M  V30 33 2 33 34
M  V30 34 1 34 35
M  V30 35 2 35 36
M  V30 36 1 6 2
M  V30 37 1 15 10
M  V30 38 1 21 16
M  V30 39 1 36 26
M  V30 40 1 34 28
M  V30 41 1 1 37
M  V30 42 1 1 38
M  V30 43 1 1 39
M  V30 44 1 6 40
M  V30 45 1 9 41
M  V30 46 1 11 42
M  V30 47 1 12 43
M  V30 48 1 14 44
M  V30 49 1 15 45
M  V30 50 1 18 46
M  V30 51 1 19 47
M  V30 52 1 20 48
M  V30 53 1 21 49
M  V30 54 1 23 50
M  V30 55 1 23 51
M  V30 56 1 27 52
M  V30 57 1 30 53
M  V30 58 1 30 54
M  V30 59 1 32 55
M  V30 60 1 35 56
M  V30 61 1 36 57
M  V30 END BOND
M  V30 END CTAB
M  END
