
     RDKit          3D

  0  0  0  0  0  0  0  0  0  0999 V3000
M  V30 BEGIN CTAB
M  V30 COUNTS 53 56 0 0 0
M  V30 BEGIN ATOM
M  V30 1 C -3.31179 -2.21428 0.74958 0
M  V30 2 C -3.94178 -1.75011 -0.529546 0
M  V30 3 C -3.54294 -0.360834 -0.859116 0
M  V30 4 C -2.0584 -0.278428 -1.03035 0
M  V30 5 O -1.70408 -0.306378 -2.2617 0
M  V30 6 N -1.18737 -0.18519 0.050356 0
M  V30 7 C 0.211803 -0.106269 0.0231547 0
M  V30 8 C 0.936915 -0.255948 1.22696 0
M  V30 9 C 2.30731 -0.179798 1.28305 0
M  V30 10 C 3.02892 0.0492693 0.144636 0
M  V30 11 C 2.35652 0.196165 -1.02007 0
M  V30 12 C 0.959454 0.121938 -1.09714 0
M  V30 13 C 4.48403 0.132546 0.178236 0
M  V30 14 N 5.33704 0.345238 -0.805 0
M  V30 15 C 6.61318 0.384953 -0.575115 0
M  V30 16 C 7.03537 0.199344 0.715278 0
M  V30 17 S 5.54071 -0.0241602 1.52681 0
M  V30 18 C 8.38614 0.220262 1.08592 0
M  V30 19 C 9.37684 0.433274 0.149825 0
M  V30 20 C 8.92807 0.617244 -1.14024 0
M  V30 21 C 7.63203 0.602798 -1.53024 0
M  V30 22 C 10.8065 0.455211 0.543081 0
M  V30 23 S -4.08701 0.749896 0.47962 0
M  V30 24 C -5.8953 0.732018 0.455473 0
M  V30 25 N -6.59314 -0.151012 1.16182 0
M  V30 26 C -7.93367 -0.149432 1.13193 0
M  V30 27 N -8.70868 -1.09422 1.88685 0
M  V30 28 C -8.60832 0.773279 0.363976 0
M  V30 29 C -7.86362 1.68301 -0.363195 0
M  V30 30 N -6.51833 1.64674 -0.304903 0
M  V30 31 N -8.56373 2.63893 -1.15808 0
M  V30 32 H -2.23698 -2.4358 0.680814 0
M  V30 33 H -3.78526 -3.20494 1.05974 0
M  V30 34 H -3.47259 -1.5011 1.58974 0
M  V30 35 H -3.58834 -2.45562 -1.34335 0
M  V30 36 H -5.05261 -1.85294 -0.505742 0
M  V30 37 H -4.02922 0.0173976 -1.76889 0
M  V30 38 H -1.63688 -0.15713 1.0148 0
M  V30 39 H 0.381693 -0.43659 2.12799 0
M  V30 40 H 2.8605 -0.295365 2.21085 0
M  V30 41 H 2.87323 0.378055 -1.94473 0
M  V30 42 H 0.48019 0.256011 -2.05541 0
M  V30 43 H 8.58343 0.0615762 2.1275 0
M  V30 44 H 9.72007 0.787083 -1.88685 0
M  V30 45 H 7.40935 0.759583 -2.5717 0
M  V30 46 H 10.8956 -0.128367 1.48893 0
M  V30 47 H 11.4006 -0.0554366 -0.252443 0
M  V30 48 H 11.1782 1.49009 0.648083 0
M  V30 49 H -8.93498 -0.928801 2.88836 0
M  V30 50 H -9.0654 -1.97182 1.45008 0
M  V30 51 H -9.70354 0.781336 0.33378 0
M  V30 52 H -9.51154 2.38286 -1.53842 0
M  V30 53 H -8.1882 3.58387 -1.38594 0
M  V30 END ATOM
M  V30 BEGIN BOND
M  V30 1 1 1 2
M  V30 2 1 2 3
M  V30 3 1 3 4
M  V30 4 2 4 5
M  V30 5 1 4 6
M  V30 6 1 6 7
M  V30 7 2 7 8
M  V30 8 1 8 9
M  V30 9 2 9 10
M  V30 10 1 10 11
M  V30 11 2 11 12
M  V30 12 1 10 13
M  V30 13 2 13 14
M  V30 14 1 14 15
M  V30 15 2 15 16
M  V30 16 1 16 17
M  V30 17 1 16 18
M  V30 18 2 18 19
M  V30 19 1 19 20
M  V30 20 2 20 21
M  V30 21 1 19 22
M  V30 22 1 3 23
M  V30 23 1 23 24
M  V30 24 2 24 25
M  V30 25 1 25 26
M  V30 26 1 26 27
M  V30 27 2 26 28
M  V30 28 1 28 29
M  V30 29 2 29 30
M  V30 30 1 29 31
M  V30 31 1 12 7
M  V30 32 1 17 13
M  V30 33 1 30 24
M  V30 34 1 21 15
M  V30 35 1 1 32
M  V30 36 1 1 33
M  V30 37 1 1 34
M  V30 38 1 2 35
M  V30 39 1 2 36
M  V30 40 1 3 37
M  V30 41 1 6 38
M  V30 42 1 8 39
M  V30 43 1 9 40
M  V30 44 1 11 41
M  V30 45 1 12 42
M  V30 46 1 18 43
M  V30 47 1 20 44
M  V30 48 1 21 45
M  V30 49 1 22 46
M  V30 50 1 22 47
M  V30 51 1 22 48
M  V30 52 1 27 49
M  V30 53 1 27 50
M  V30 54 1 28 51
M  V30 55 1 31 52
M  V30 56 1 31 53
M  V30 END BOND
M  V30 END CTAB
M  END
