
     RDKit          3D

  0  0  0  0  0  0  0  0  0  0999 V3000
M  V30 BEGIN CTAB
M  V30 COUNTS 47 49 0 0 0
M  V30 BEGIN ATOM
M  V30 1 C -2.16298 -4.33832 0.427646 0
M  V30 2 O -2.19092 -2.95645 0.253381 0
M  V30 3 C -1.16855 -2.10723 0.649527 0
M  V30 4 C -0.0476718 -2.62196 1.25202 0
M  V30 5 C 0.985492 -1.75238 1.65058 0
M  V30 6 C 0.925482 -0.39961 1.46371 0
M  V30 7 C 1.93651 0.560281 1.87053 0
M  V30 8 N 3.19487 0.551638 1.20108 0
M  V30 9 C 4.29903 -0.0685166 1.6638 0
M  V30 10 S 4.27744 -0.762308 3.12577 0
M  V30 11 N 5.4763 -0.0962067 0.972029 0
M  V30 12 C 5.58039 0.510326 -0.223782 0
M  V30 13 O 6.67631 0.485003 -0.86912 0
M  V30 14 C 4.48265 1.1638 -0.747618 0
M  V30 15 N 4.51853 1.82635 -2.00235 0
M  V30 16 C 3.31596 1.15716 -0.000433202 0
M  V30 17 N 2.2044 1.835 -0.535935 0
M  V30 18 C -0.249539 0.0558129 0.842807 0
M  V30 19 C -1.27326 -0.743459 0.440207 0
M  V30 20 O -2.42733 -0.304829 -0.169504 0
M  V30 21 C -2.78041 0.999353 -0.49237 0
M  V30 22 C -4.10849 1.4201 0.0961966 0
M  V30 23 C -5.07449 0.835272 -0.935822 0
M  V30 24 C -4.46312 1.36407 -2.21627 0
M  V30 25 C -2.98936 1.09351 -2.00175 0
M  V30 26 H -1.41561 -4.85899 -0.186909 0
M  V30 27 H -3.17784 -4.7284 0.157331 0
M  V30 28 H -2.00292 -4.64195 1.48459 0
M  V30 29 H 0.058186 -3.69308 1.4282 0
M  V30 30 H 1.83454 -2.2095 2.11493 0
M  V30 31 H 2.12154 0.405921 2.98056 0
M  V30 32 H 1.46302 1.59122 1.86097 0
M  V30 33 H 6.29511 -0.594809 1.38399 0
M  V30 34 H 3.97877 2.71056 -2.09384 0
M  V30 35 H 5.04288 1.49555 -2.83667 0
M  V30 36 H 1.84085 2.74333 -0.229822 0
M  V30 37 H 1.69183 1.36054 -1.33448 0
M  V30 38 H -0.374342 1.12166 0.678867 0
M  V30 39 H -2.05317 1.77678 -0.231428 0
M  V30 40 H -4.28783 1.0453 1.10289 0
M  V30 41 H -4.17297 2.51578 0.00882533 0
M  V30 42 H -5.01306 -0.255789 -0.848174 0
M  V30 43 H -6.08409 1.24523 -0.838919 0
M  V30 44 H -4.85023 0.828246 -3.11349 0
M  V30 45 H -4.69031 2.44454 -2.27026 0
M  V30 46 H -2.35486 1.88796 -2.45577 0
M  V30 47 H -2.78673 0.103517 -2.47571 0
M  V30 END ATOM
M  V30 BEGIN BOND
M  V30 1 1 1 2
M  V30 2 1 2 3
M  V30 3 2 3 4
M  V30 4 1 4 5
M  V30 5 2 5 6
M  V30 6 1 6 7
M  V30 7 1 7 8
M  V30 8 1 8 9
M  V30 9 2 9 10
M  V30 10 1 9 11
M  V30 11 1 11 12
M  V30 12 2 12 13
M  V30 13 1 12 14
M  V30 14 1 14 15
M  V30 15 2 14 16
M  V30 16 1 16 17
M  V30 17 1 6 18
M  V30 18 2 18 19
M  V30 19 1 19 20
M  V30 20 1 20 21
M  V30 21 1 21 22
M  V30 22 1 22 23
M  V30 23 1 23 24
M  V30 24 1 24 25
M  V30 25 1 19 3
M  V30 26 1 25 21
M  V30 27 1 16 8
M  V30 28 1 1 26
M  V30 29 1 1 27
M  V30 30 1 1 28
M  V30 31 1 4 29
M  V30 32 1 5 30
M  V30 33 1 7 31
M  V30 34 1 7 32
M  V30 35 1 11 33
M  V30 36 1 15 34
M  V30 37 1 15 35
M  V30 38 1 17 36
M  V30 39 1 17 37
M  V30 40 1 18 38
M  V30 41 1 21 39
M  V30 42 1 22 40
M  V30 43 1 22 41
M  V30 44 1 23 42
M  V30 45 1 23 43
M  V30 46 1 24 44
M  V30 47 1 24 45
M  V30 48 1 25 46
M  V30 49 1 25 47
M  V30 END BOND
M  V30 END CTAB
M  END
