
     RDKit          3D

  0  0  0  0  0  0  0  0  0  0999 V3000
M  V30 BEGIN CTAB
M  V30 COUNTS 20 20 0 0 0
M  V30 BEGIN ATOM
M  V30 1 N 0.967442 -3.32414 0.511103 0
M  V30 2 C 0.825809 -2.19269 0.326435 0
M  V30 3 C 0.624947 -0.780798 0.0941313 0
M  V30 4 C 1.67164 0.0771484 -0.165346 0
M  V30 5 N 2.98488 -0.471966 -0.199994 0
M  V30 6 C 1.43657 1.41744 -0.381394 0
M  V30 7 C 0.127646 1.85397 -0.327014 0
M  V30 8 C -0.934913 0.996482 -0.0660065 0
M  V30 9 C -0.695753 -0.343994 0.149657 0
M  V30 10 C -1.82266 -1.22045 0.421293 0
M  V30 11 F -1.79652 -1.86807 1.62034 0
M  V30 12 F -1.79949 -2.2271 -0.558688 0
M  V30 13 F -3.01471 -0.555039 0.220557 0
M  V30 14 N -2.24814 1.54683 -0.0315275 0
M  V30 15 H 3.69054 -0.288918 0.545814 0
M  V30 16 H 3.20526 -1.07721 -1.02615 0
M  V30 17 H 2.27367 2.07984 -0.58464 0
M  V30 18 H -0.0968982 2.9088 -0.493032 0
M  V30 19 H -2.63723 1.83732 0.887943 0
M  V30 20 H -2.76211 1.63252 -0.943485 0
M  V30 END ATOM
M  V30 BEGIN BOND
M  V30 1 3 1 2
M  V30 2 1 2 3
M  V30 3 2 3 4
M  V30 4 1 4 5
M  V30 5 1 4 6
M  V30 6 2 6 7
M  V30 7 1 7 8
M  V30 8 2 8 9
M  V30 9 1 9 10
M  V30 10 1 10 11
M  V30 11 1 10 12
M  V30 12 1 10 13
M  V30 13 1 8 14
M  V30 14 1 9 3
M  V30 15 1 5 15
M  V30 16 1 5 16
M  V30 17 1 6 17
M  V30 18 1 7 18
M  V30 19 1 14 19
M  V30 20 1 14 20
M  V30 END BOND
M  V30 END CTAB
M  END
