
     RDKit          3D

  0  0  0  0  0  0  0  0  0  0999 V3000
M  V30 BEGIN CTAB
M  V30 COUNTS 44 46 0 0 0
M  V30 BEGIN ATOM
M  V30 1 N 9.15818 -1.10887 0.348942 0
M  V30 2 C 7.75181 -1.0041 0.161926 0
M  V30 3 C 7.16446 -1.48286 -0.99736 0
M  V30 4 C 5.80284 -1.39114 -1.19849 0
M  V30 5 C 4.96014 -0.82346 -0.26575 0
M  V30 6 C 5.55681 -0.34639 0.892725 0
M  V30 7 C 6.91786 -0.435066 1.09998 0
M  V30 8 O 3.59126 -0.738953 -0.483876 0
M  V30 9 C 2.80443 -0.151881 0.505037 0
M  V30 10 C 1.3715 -0.107998 0.184468 0
M  V30 11 C 0.862222 -0.608157 -0.996521 0
M  V30 12 C -0.507758 -0.542615 -1.25421 0
M  V30 13 C -1.39474 0.0135972 -0.358077 0
M  V30 14 C -0.88067 0.51186 0.820362 0
M  V30 15 C 0.486734 0.449394 1.08367 0
M  V30 16 C -2.86099 0.0661402 -0.670308 0
M  V30 17 O -3.58437 0.666138 0.363942 0
M  V30 18 C -4.94717 0.792456 0.23417 0
M  V30 19 C -5.65506 0.358031 -0.868251 0
M  V30 20 C -7.01569 0.502529 -0.959761 0
M  V30 21 C -7.73398 1.09619 0.0628318 0
M  V30 22 C -7.02511 1.53313 1.17074 0
M  V30 23 C -5.65206 1.38008 1.24813 0
M  V30 24 N -9.1467 1.25182 -0.0205652 0
M  V30 25 H 9.82407 -0.346285 0.106125 0
M  V30 26 H 9.57339 -1.98239 0.747923 0
M  V30 27 H 7.81572 -1.92808 -1.73167 0
M  V30 28 H 5.3688 -1.76819 -2.10332 0
M  V30 29 H 4.89434 0.0998588 1.62592 0
M  V30 30 H 7.37403 -0.0616132 2.00368 0
M  V30 31 H 3.18086 0.894156 0.651569 0
M  V30 32 H 3.00588 -0.664072 1.48023 0
M  V30 33 H 1.54285 -1.04563 -1.70623 0
M  V30 34 H -0.908419 -0.935194 -2.18144 0
M  V30 35 H -1.55633 0.96008 1.55373 0
M  V30 36 H 0.88582 0.844469 2.01562 0
M  V30 37 H -3.26485 -0.952714 -0.831635 0
M  V30 38 H -2.94886 0.600066 -1.63613 0
M  V30 39 H -5.12775 -0.109183 -1.68395 0
M  V30 40 H -7.59417 0.163109 -1.82839 0
M  V30 41 H -7.56131 2.00103 1.98532 0
M  V30 42 H -5.15502 1.74339 2.14282 0
M  V30 43 H -9.76835 0.792623 0.678329 0
M  V30 44 H -9.60465 1.8147 -0.761912 0
M  V30 END ATOM
M  V30 BEGIN BOND
M  V30 1 1 1 2
M  V30 2 2 2 3
M  V30 3 1 3 4
M  V30 4 2 4 5
M  V30 5 1 5 6
M  V30 6 2 6 7
M  V30 7 1 5 8
M  V30 8 1 8 9
M  V30 9 1 9 10
M  V30 10 2 10 11
M  V30 11 1 11 12
M  V30 12 2 12 13
M  V30 13 1 13 14
M  V30 14 2 14 15
M  V30 15 1 13 16
M  V30 16 1 16 17
M  V30 17 1 17 18
M  V30 18 2 18 19
M  V30 19 1 19 20
M  V30 20 2 20 21
M  V30 21 1 21 22
M  V30 22 2 22 23
M  V30 23 1 21 24
M  V30 24 1 7 2
M  V30 25 1 15 10
M  V30 26 1 23 18
M  V30 27 1 1 25
M  V30 28 1 1 26
M  V30 29 1 3 27
M  V30 30 1 4 28
M  V30 31 1 6 29
M  V30 32 1 7 30
M  V30 33 1 9 31
M  V30 34 1 9 32
M  V30 35 1 11 33
M  V30 36 1 12 34
M  V30 37 1 14 35
M  V30 38 1 15 36
M  V30 39 1 16 37
M  V30 40 1 16 38
M  V30 41 1 19 39
M  V30 42 1 20 40
M  V30 43 1 22 41
M  V30 44 1 23 42
M  V30 45 1 24 43
M  V30 46 1 24 44
M  V30 END BOND
M  V30 END CTAB
M  END
