
     RDKit          3D

  0  0  0  0  0  0  0  0  0  0999 V3000
M  V30 BEGIN CTAB
M  V30 COUNTS 25 25 0 0 0
M  V30 BEGIN ATOM
M  V30 1 C 3.67652 0.142475 0.680685 0
M  V30 2 C 2.91868 0.5793 -0.523656 0
M  V30 3 O 1.5452 0.685798 -0.364251 0
M  V30 4 C 0.674275 -0.307067 -0.0142832 0
M  V30 5 O 1.14354 -1.45124 0.191208 0
M  V30 6 C -0.764012 -0.128096 0.13687 0
M  V30 7 C -1.38606 1.08527 -0.0643913 0
M  V30 8 N -0.617984 2.20162 -0.4295 0
M  V30 9 C -2.74384 1.17103 0.09776 0
M  V30 10 C -3.54189 0.0998512 0.456291 0
M  V30 11 C -2.91721 -1.10423 0.655022 0
M  V30 12 C -1.55415 -1.20256 0.495117 0
M  V30 13 N -0.936589 -2.48306 0.712814 0
M  V30 14 Br -3.93514 -2.66067 1.15694 0
M  V30 15 H 3.25156 -0.705865 1.22624 0
M  V30 16 H 4.69458 -0.201903 0.330407 0
M  V30 17 H 3.9164 1.00412 1.36914 0
M  V30 18 H 3.22709 -0.0631059 -1.37544 0
M  V30 19 H 3.29968 1.60894 -0.795291 0
M  V30 20 H -0.0852704 2.27805 -1.30323 0
M  V30 21 H -0.588244 3.01443 0.240625 0
M  V30 22 H -3.23145 2.13466 -0.0629599 0
M  V30 23 H -4.60612 0.173695 0.581839 0
M  V30 24 H -0.674487 -2.77303 1.67801 0
M  V30 25 H -0.765076 -3.0984 -0.120866 0
M  V30 END ATOM
M  V30 BEGIN BOND
M  V30 1 1 1 2
M  V30 2 1 2 3
M  V30 3 1 3 4
M  V30 4 2 4 5
M  V30 5 1 4 6
M  V30 6 2 6 7
M  V30 7 1 7 8
M  V30 8 1 7 9
M  V30 9 2 9 10
M  V30 10 1 10 11
M  V30 11 2 11 12
M  V30 12 1 12 13
M  V30 13 1 11 14
M  V30 14 1 12 6
M  V30 15 1 1 15
M  V30 16 1 1 16
M  V30 17 1 1 17
M  V30 18 1 2 18
M  V30 19 1 2 19
M  V30 20 1 8 20
M  V30 21 1 8 21
M  V30 22 1 9 22
M  V30 23 1 10 23
M  V30 24 1 13 24
M  V30 25 1 13 25
M  V30 END BOND
M  V30 END CTAB
M  END
