
     RDKit          3D

  0  0  0  0  0  0  0  0  0  0999 V3000
M  V30 BEGIN CTAB
M  V30 COUNTS 54 57 0 0 0
M  V30 BEGIN ATOM
M  V30 1 N -9.63834 -3.61457 -0.0633469 0
M  V30 2 C -8.87109 -2.76571 -0.0102485 0
M  V30 3 C -7.88079 -1.70634 0.0496492 0
M  V30 4 C -6.55535 -2.02137 0.070113 0
M  V30 5 C -5.58913 -0.995428 0.128308 0
M  V30 6 C -6.10447 0.268933 0.159706 0
M  V30 7 N -7.448 0.550041 0.137643 0
M  V30 8 C -8.37464 -0.424512 0.0821558 0
M  V30 9 N -9.74681 -0.107911 0.0606489 0
M  V30 10 S -4.69258 1.24562 0.226837 0
M  V30 11 C -3.52201 0.015769 0.212155 0
M  V30 12 C -4.25396 -1.13087 0.15526 0
M  V30 13 N -3.54824 -2.40452 0.128031 0
M  V30 14 C -2.03954 0.176654 0.253026 0
M  V30 15 O -1.32383 -0.841558 0.234898 0
M  V30 16 N -1.50047 1.46739 0.31053 0
M  V30 17 C -0.132836 1.8275 0.362199 0
M  V30 18 C 0.208238 3.17122 0.0975168 0
M  V30 19 C 1.49932 3.57174 0.148507 0
M  V30 20 C 2.5357 2.66682 0.465018 0
M  V30 21 C 2.25416 1.3701 0.724324 0
M  V30 22 C 0.904177 0.991681 0.662986 0
M  V30 23 S 3.46106 0.175117 1.06448 0
M  V30 24 O 4.31933 0.586336 2.25244 0
M  V30 25 O 2.71138 -1.07629 1.57163 0
M  V30 26 N 4.44793 -0.323246 -0.178926 0
M  V30 27 C 5.30978 0.489596 -0.870706 0
M  V30 28 C 6.32179 -0.240437 -1.75081 0
M  V30 29 C 6.81933 -1.41112 -0.916507 0
M  V30 30 C 5.64738 -2.37483 -0.846856 0
M  V30 31 C 4.36495 -1.7064 -0.529246 0
M  V30 32 C 3.89556 3.23187 0.533732 0
M  V30 33 H -6.26744 -3.06888 0.0408191 0
M  V30 34 H -10.0492 0.768752 0.554842 0
M  V30 35 H -10.4564 -0.69067 -0.412054 0
M  V30 36 H -3.64061 -2.9616 -0.724886 0
M  V30 37 H -2.97779 -2.74876 0.916916 0
M  V30 38 H -2.20645 2.27336 0.319317 0
M  V30 39 H -0.574035 3.86363 -0.143965 0
M  V30 40 H 1.76238 4.62237 -0.0588942 0
M  V30 41 H 0.688932 -0.0627379 0.888706 0
M  V30 42 H 4.80703 1.20306 -1.55552 0
M  V30 43 H 5.94806 1.09716 -0.184768 0
M  V30 44 H 7.17963 0.421742 -1.94123 0
M  V30 45 H 5.85116 -0.637987 -2.66497 0
M  V30 46 H 7.02796 -1.05077 0.120522 0
M  V30 47 H 7.69062 -1.90903 -1.36925 0
M  V30 48 H 5.88793 -3.23089 -0.164049 0
M  V30 49 H 5.59964 -2.85038 -1.86876 0
M  V30 50 H 3.91205 -2.23903 0.358768 0
M  V30 51 H 3.64098 -1.87131 -1.35353 0
M  V30 52 H 3.7918 4.26988 0.991114 0
M  V30 53 H 4.32017 3.42679 -0.484497 0
M  V30 54 H 4.58557 2.71407 1.21397 0
M  V30 END ATOM
M  V30 BEGIN BOND
M  V30 1 3 1 2
M  V30 2 1 2 3
M  V30 3 2 3 4
M  V30 4 1 4 5
M  V30 5 2 5 6
M  V30 6 1 6 7
M  V30 7 2 7 8
M  V30 8 1 8 9
M  V30 9 1 6 10
M  V30 10 1 10 11
M  V30 11 2 11 12
M  V30 12 1 12 13
M  V30 13 1 11 14
M  V30 14 2 14 15
M  V30 15 1 14 16
M  V30 16 1 16 17
M  V30 17 2 17 18
M  V30 18 1 18 19
M  V30 19 2 19 20
M  V30 20 1 20 21
M  V30 21 2 21 22
M  V30 22 1 21 23
M  V30 23 2 23 24
M  V30 24 2 23 25
M  V30 25 1 23 26
M  V30 26 1 26 27
M  V30 27 1 27 28
M  V30 28 1 28 29
M  V30 29 1 29 30
M  V30 30 1 30 31
M  V30 31 1 20 32
M  V30 32 1 8 3
M  V30 33 1 22 17
M  V30 34 1 31 26
M  V30 35 1 12 5
M  V30 36 1 4 33
M  V30 37 1 9 34
M  V30 38 1 9 35
M  V30 39 1 13 36
M  V30 40 1 13 37
M  V30 41 1 16 38
M  V30 42 1 18 39
M  V30 43 1 19 40
M  V30 44 1 22 41
M  V30 45 1 27 42
M  V30 46 1 27 43
M  V30 47 1 28 44
M  V30 48 1 28 45
M  V30 49 1 29 46
M  V30 50 1 29 47
M  V30 51 1 30 48
M  V30 52 1 30 49
M  V30 53 1 31 50
M  V30 54 1 31 51
M  V30 55 1 32 52
M  V30 56 1 32 53
M  V30 57 1 32 54
M  V30 END BOND
M  V30 END CTAB
M  END
