
     RDKit          3D

  0  0  0  0  0  0  0  0  0  0999 V3000
M  V30 BEGIN CTAB
M  V30 COUNTS 47 50 0 0 0
M  V30 BEGIN ATOM
M  V30 1 N 6.94045 1.23806 -0.559271 0
M  V30 2 C 6.05675 0.242026 -1.07394 0 CFG=2
M  V30 3 C 4.69364 0.761181 -1.39618 0
M  V30 4 C 4.09339 -0.39807 -0.636543 0 CFG=1
M  V30 5 C 5.44445 -0.600905 0.0234698 0
M  V30 6 C 3.0926 -0.023881 0.381811 0
M  V30 7 C 1.93055 -0.755023 0.463531 0
M  V30 8 C 0.981909 -0.407444 1.421 0
M  V30 9 N -0.249969 -1.0795 1.57263 0
M  V30 10 C -0.63145 -2.12721 0.677131 0
M  V30 11 C -1.0032 -1.64431 -0.683767 0
M  V30 12 C -2.17679 -0.706854 -0.551616 0
M  V30 13 N -2.19219 0.614631 -0.374751 0
M  V30 14 N -3.43342 1.03248 -0.309937 0
M  V30 15 C -4.23561 -0.0452767 -0.448324 0
M  V30 16 N -3.4517 -1.12407 -0.598252 0
M  V30 17 C -5.68245 -0.0533449 -0.439019 0
M  V30 18 C -6.35802 1.13729 -0.274927 0
M  V30 19 C -7.72336 1.11544 -0.268049 0
M  V30 20 C -8.38103 -0.0843131 -0.423792 0
M  V30 21 N -7.69255 -1.23065 -0.582054 0
M  V30 22 C -6.36049 -1.23438 -0.592112 0
M  V30 23 N 1.24351 0.637654 2.23464 0
M  V30 24 C 2.37472 1.34754 2.1539 0
M  V30 25 N 3.30191 1.00486 1.21421 0
M  V30 26 N 2.56734 2.42689 3.0458 0
M  V30 27 H 6.58974 1.60683 0.334558 0
M  V30 28 H 7.14854 1.96903 -1.23812 0
M  V30 29 H 6.52499 -0.373087 -1.86612 0
M  V30 30 H 4.4481 0.765669 -2.47177 0
M  V30 31 H 4.45976 1.75628 -0.942319 0
M  V30 32 H 3.81307 -1.25001 -1.25459 0
M  V30 33 H 5.75475 -1.65004 0.0418667 0
M  V30 34 H 5.52093 -0.102191 1.02178 0
M  V30 35 H 1.73237 -1.59715 -0.177428 0
M  V30 36 H -0.870906 -0.769437 2.37874 0
M  V30 37 H 0.227975 -2.82663 0.599736 0
M  V30 38 H -1.46683 -2.67956 1.13364 0
M  V30 39 H -1.3405 -2.51108 -1.29017 0
M  V30 40 H -0.253431 -1.09006 -1.23772 0
M  V30 41 H -1.31784 1.1899 -0.304087 0
M  V30 42 H -5.82834 2.07566 -0.153235 0
M  V30 43 H -8.28826 2.04917 -0.139111 0
M  V30 44 H -9.45548 -0.0994674 -0.418106 0
M  V30 45 H -5.81874 -2.1733 -0.721585 0
M  V30 46 H 2.42172 3.39322 2.70506 0
M  V30 47 H 2.84937 2.27344 4.02728 0
M  V30 END ATOM
M  V30 BEGIN BOND
M  V30 1 1 1 2
M  V30 2 1 2 3
M  V30 3 1 3 4
M  V30 4 1 4 5
M  V30 5 1 4 6
M  V30 6 2 6 7
M  V30 7 1 7 8
M  V30 8 1 8 9
M  V30 9 1 9 10
M  V30 10 1 10 11
M  V30 11 1 11 12
M  V30 12 1 12 13
M  V30 13 1 13 14
M  V30 14 2 14 15
M  V30 15 1 15 16
M  V30 16 1 15 17
M  V30 17 2 17 18
M  V30 18 1 18 19
M  V30 19 2 19 20
M  V30 20 1 20 21
M  V30 21 2 21 22
M  V30 22 2 8 23
M  V30 23 1 23 24
M  V30 24 2 24 25
M  V30 25 1 24 26
M  V30 26 1 5 2
M  V30 27 1 25 6
M  V30 28 2 16 12
M  V30 29 1 22 17
M  V30 30 1 1 27
M  V30 31 1 1 28
M  V30 32 1 2 29 CFG=3
M  V30 33 1 3 30
M  V30 34 1 3 31
M  V30 35 1 4 32 CFG=3
M  V30 36 1 5 33
M  V30 37 1 5 34
M  V30 38 1 7 35
M  V30 39 1 9 36
M  V30 40 1 10 37
M  V30 41 1 10 38
M  V30 42 1 11 39
M  V30 43 1 11 40
M  V30 44 1 13 41
M  V30 45 1 18 42
M  V30 46 1 19 43
M  V30 47 1 20 44
M  V30 48 1 22 45
M  V30 49 1 26 46
M  V30 50 1 26 47
M  V30 END BOND
M  V30 END CTAB
M  END
