
     RDKit          3D

  0  0  0  0  0  0  0  0  0  0999 V3000
M  V30 BEGIN CTAB
M  V30 COUNTS 45 48 0 0 0
M  V30 BEGIN ATOM
M  V30 1 N 6.13684 1.0337 -1.32695 0
M  V30 2 C 5.50328 -0.016406 -0.554452 0
M  V30 3 C 5.34597 0.51575 0.863083 0
M  V30 4 C 3.89873 0.880936 0.902845 0
M  V30 5 C 3.22421 -0.343534 0.211389 0
M  V30 6 C 4.1383 -0.360397 -1.0462 0
M  V30 7 O 1.98122 -0.0667858 -0.0122369 0
M  V30 8 C 0.673296 -0.0905605 -0.0381839 0
M  V30 9 C 0.0477537 0.956496 -0.757119 0
M  V30 10 C -1.30875 1.03335 -0.855145 0
M  V30 11 C -2.12164 0.0733009 -0.244476 0
M  V30 12 C -3.55479 0.260043 -0.406517 0
M  V30 13 C -4.46601 -0.695431 -0.764917 0
M  V30 14 C -5.78374 -0.364163 -0.992107 0
M  V30 15 C -6.24564 0.920217 -0.875045 0
M  V30 16 C -5.29493 1.86669 -0.511506 0
M  V30 17 N -5.68389 3.22627 -0.367068 0
M  V30 18 N -4.02919 1.54207 -0.293468 0
M  V30 19 C -1.57693 -0.945168 0.45818 0
M  V30 20 C -0.177944 -1.00444 0.544463 0
M  V30 21 C 0.372364 -2.02428 1.2883 0
M  V30 22 C -0.39581 -2.97088 1.94312 0
M  V30 23 C -1.76444 -2.9079 1.86136 0
M  V30 24 C -2.33786 -1.89714 1.12216 0
M  V30 25 H 6.42467 0.741027 -2.26715 0
M  V30 26 H 5.60433 1.92844 -1.2848 0
M  V30 27 H 6.19734 -0.87702 -0.504534 0
M  V30 28 H 6.0137 1.36762 1.03682 0
M  V30 29 H 5.58944 -0.290442 1.5913 0
M  V30 30 H 3.4823 1.03028 1.89957 0
M  V30 31 H 3.70938 1.74587 0.27039 0
M  V30 32 H 3.52084 -1.25136 0.818098 0
M  V30 33 H 4.15555 -1.38514 -1.45592 0
M  V30 34 H 3.72413 0.381799 -1.75226 0
M  V30 35 H 0.637967 1.71743 -1.24351 0
M  V30 36 H -1.80214 1.8404 -1.40922 0
M  V30 37 H -4.13322 -1.73002 -0.909841 0
M  V30 38 H -6.48864 -1.14357 -1.2747 0
M  V30 39 H -7.26561 1.22336 -1.04324 0
M  V30 40 H -5.87841 3.77702 -1.21582 0
M  V30 41 H -5.77064 3.65575 0.565339 0
M  V30 42 H 1.46458 -2.07741 1.35667 0
M  V30 43 H 0.0460777 -3.76033 2.51833 0
M  V30 44 H -2.40462 -3.6449 2.37192 0
M  V30 45 H -3.40743 -1.87052 1.13495 0
M  V30 END ATOM
M  V30 BEGIN BOND
M  V30 1 1 1 2
M  V30 2 1 2 3
M  V30 3 1 3 4
M  V30 4 1 4 5
M  V30 5 1 5 6
M  V30 6 1 5 7
M  V30 7 1 7 8
M  V30 8 2 8 9
M  V30 9 1 9 10
M  V30 10 2 10 11
M  V30 11 1 11 12
M  V30 12 2 12 13
M  V30 13 1 13 14
M  V30 14 2 14 15
M  V30 15 1 15 16
M  V30 16 1 16 17
M  V30 17 2 16 18
M  V30 18 1 11 19
M  V30 19 2 19 20
M  V30 20 1 20 21
M  V30 21 2 21 22
M  V30 22 1 22 23
M  V30 23 2 23 24
M  V30 24 1 6 2
M  V30 25 1 20 8
M  V30 26 1 18 12
M  V30 27 1 24 19
M  V30 28 1 1 25
M  V30 29 1 1 26
M  V30 30 1 2 27
M  V30 31 1 3 28
M  V30 32 1 3 29
M  V30 33 1 4 30
M  V30 34 1 4 31
M  V30 35 1 5 32
M  V30 36 1 6 33
M  V30 37 1 6 34
M  V30 38 1 9 35
M  V30 39 1 10 36
M  V30 40 1 13 37
M  V30 41 1 14 38
M  V30 42 1 15 39
M  V30 43 1 17 40
M  V30 44 1 17 41
M  V30 45 1 21 42
M  V30 46 1 22 43
M  V30 47 1 23 44
M  V30 48 1 24 45
M  V30 END BOND
M  V30 END CTAB
M  END
