
     RDKit          3D

  0  0  0  0  0  0  0  0  0  0999 V3000
M  V30 BEGIN CTAB
M  V30 COUNTS 52 52 0 0 0
M  V30 BEGIN ATOM
M  V30 1 C -8.24236 -1.09532 0.527242 0
M  V30 2 C -8.45989 0.227559 -0.123583 0
M  V30 3 C -7.32339 1.17952 -0.0888136 0
M  V30 4 S -5.82612 0.667782 -0.870135 0
M  V30 5 C -4.82651 -0.522533 -0.0486004 0
M  V30 6 N -3.83305 -1.01967 -0.759427 0
M  V30 7 N -2.95676 -1.92923 -0.337285 0
M  V30 8 C -1.72229 -1.96638 -0.160406 0
M  V30 9 C -0.706845 -0.9628 -0.361985 0
M  V30 10 C -1.05495 0.285745 -0.825129 0
M  V30 11 C -0.0652156 1.2622 -1.02068 0
M  V30 12 C -0.420162 2.61793 -1.52041 0
M  V30 13 C 1.2228 0.935458 -0.741462 0
M  V30 14 C 1.63143 -0.293425 -0.276984 0
M  V30 15 C 0.61285 -1.25825 -0.0890133 0
M  V30 16 O 1.05034 -2.48123 0.377539 0
M  V30 17 C 3.01451 -0.623715 0.0134352 0
M  V30 18 N 4.04148 0.0774889 -0.0848986 0
M  V30 19 N 4.36782 1.3107 -0.451224 0
M  V30 20 C 5.29455 2.10845 -0.27146 0
M  V30 21 S 6.72449 1.79454 0.699343 0
M  V30 22 C 7.01352 0.0772169 1.1183 0
M  V30 23 C 7.46911 -0.756534 -0.05506 0
M  V30 24 C 7.66549 -2.18845 0.399613 0
M  V30 25 N 5.1794 3.42125 -0.851009 0
M  V30 26 N -5.02801 -0.954346 1.27995 0
M  V30 27 H -7.53794 -1.69121 -0.0808623 0
M  V30 28 H -7.95619 -0.937885 1.58011 0
M  V30 29 H -9.22418 -1.68586 0.526067 0
M  V30 30 H -9.37902 0.71064 0.32579 0
M  V30 31 H -8.80595 0.035367 -1.19258 0
M  V30 32 H -7.68888 2.11382 -0.62788 0
M  V30 33 H -7.15893 1.5304 0.970692 0
M  V30 34 H -1.36109 -2.95625 0.220735 0
M  V30 35 H -2.06707 0.601279 -1.06441 0
M  V30 36 H 0.125759 2.86213 -2.4479 0
M  V30 37 H -0.0561479 3.34576 -0.743894 0
M  V30 38 H -1.50779 2.7551 -1.61011 0
M  V30 39 H 1.97019 1.72534 -0.90635 0
M  V30 40 H 0.47744 -3.26003 0.562545 0
M  V30 41 H 3.20059 -1.66043 0.381697 0
M  V30 42 H 6.07128 -0.39052 1.48262 0
M  V30 43 H 7.72994 -0.0248336 1.97115 0
M  V30 44 H 8.48053 -0.376686 -0.400555 0
M  V30 45 H 6.76894 -0.668914 -0.866464 0
M  V30 46 H 7.80148 -2.17701 1.48763 0
M  V30 47 H 8.51328 -2.61011 -0.159508 0
M  V30 48 H 6.72674 -2.76359 0.168311 0
M  V30 49 H 4.54065 4.12901 -0.431079 0
M  V30 50 H 5.72494 3.69396 -1.69473 0
M  V30 51 H -5.00452 -0.263757 2.06833 0
M  V30 52 H -5.20628 -1.94969 1.55113 0
M  V30 END ATOM
M  V30 BEGIN BOND
M  V30 1 1 1 2
M  V30 2 1 2 3
M  V30 3 1 3 4
M  V30 4 1 4 5
M  V30 5 2 5 6 CFG=2
M  V30 6 1 6 7
M  V30 7 2 7 8 CFG=2
M  V30 8 1 8 9
M  V30 9 2 9 10
M  V30 10 1 10 11
M  V30 11 1 11 12
M  V30 12 2 11 13
M  V30 13 1 13 14
M  V30 14 2 14 15
M  V30 15 1 15 16
M  V30 16 1 14 17
M  V30 17 2 17 18 CFG=2
M  V30 18 1 18 19
M  V30 19 2 19 20 CFG=2
M  V30 20 1 20 21
M  V30 21 1 21 22
M  V30 22 1 22 23
M  V30 23 1 23 24
M  V30 24 1 20 25
M  V30 25 1 5 26
M  V30 26 1 15 9
M  V30 27 1 1 27
M  V30 28 1 1 28
M  V30 29 1 1 29
M  V30 30 1 2 30
M  V30 31 1 2 31
M  V30 32 1 3 32
M  V30 33 1 3 33
M  V30 34 1 8 34
M  V30 35 1 10 35
M  V30 36 1 12 36
M  V30 37 1 12 37
M  V30 38 1 12 38
M  V30 39 1 13 39
M  V30 40 1 16 40
M  V30 41 1 17 41
M  V30 42 1 22 42
M  V30 43 1 22 43
M  V30 44 1 23 44
M  V30 45 1 23 45
M  V30 46 1 24 46
M  V30 47 1 24 47
M  V30 48 1 24 48
M  V30 49 1 25 49
M  V30 50 1 25 50
M  V30 51 1 26 51
M  V30 52 1 26 52
M  V30 END BOND
M  V30 END CTAB
M  END
