
     RDKit          3D

  0  0  0  0  0  0  0  0  0  0999 V3000
M  V30 BEGIN CTAB
M  V30 COUNTS 30 31 0 0 0
M  V30 BEGIN ATOM
M  V30 1 N -0.977973 2.24682 1.36368 0
M  V30 2 C -0.699358 1.9669 -0.0163136 0
M  V30 3 C -0.840263 0.501614 -0.35411 0
M  V30 4 C -2.26653 0.0861386 -0.0549864 0
M  V30 5 C -2.49715 -1.32099 -0.508878 0
M  V30 6 C -1.4656 -2.29388 -0.0490697 0
M  V30 7 C -0.0595907 -1.77861 -0.105297 0
M  V30 8 C 0.039198 -0.375286 0.509698 0
M  V30 9 C 1.45168 0.00836156 0.457516 0
M  V30 10 O 2.18198 0.222626 1.52585 0
M  V30 11 N 3.37963 0.543133 1.15206 0
M  V30 12 C 3.46262 0.546326 -0.182991 0
M  V30 13 N 2.23059 0.204735 -0.616601 0
M  V30 14 N 4.61754 0.849303 -0.962179 0
M  V30 15 H -1.9506 2.51704 1.56072 0
M  V30 16 H -0.589386 1.50957 1.98492 0
M  V30 17 H -1.45606 2.50701 -0.623577 0
M  V30 18 H 0.281138 2.38503 -0.271657 0
M  V30 19 H -0.646625 0.336723 -1.41322 0
M  V30 20 H -2.38817 0.147124 1.05616 0
M  V30 21 H -3.00345 0.739344 -0.560899 0
M  V30 22 H -2.62685 -1.33511 -1.6179 0
M  V30 23 H -3.47998 -1.64914 -0.068158 0
M  V30 24 H -1.51281 -3.17965 -0.736731 0
M  V30 25 H -1.66606 -2.70294 0.963135 0
M  V30 26 H 0.216325 -1.66064 -1.17229 0
M  V30 27 H 0.60766 -2.48213 0.393171 0
M  V30 28 H -0.343313 -0.464784 1.52304 0
M  V30 29 H 4.4346 1.15919 -1.94508 0
M  V30 30 H 5.5668 0.766185 -0.575841 0
M  V30 END ATOM
M  V30 BEGIN BOND
M  V30 1 1 1 2
M  V30 2 1 2 3
M  V30 3 1 3 4
M  V30 4 1 4 5
M  V30 5 1 5 6
M  V30 6 1 6 7
M  V30 7 1 7 8
M  V30 8 1 8 9
M  V30 9 1 9 10
M  V30 10 1 10 11
M  V30 11 2 11 12
M  V30 12 1 12 13
M  V30 13 1 12 14
M  V30 14 1 8 3
M  V30 15 2 13 9
M  V30 16 1 1 15
M  V30 17 1 1 16
M  V30 18 1 2 17
M  V30 19 1 2 18
M  V30 20 1 3 19
M  V30 21 1 4 20
M  V30 22 1 4 21
M  V30 23 1 5 22
M  V30 24 1 5 23
M  V30 25 1 6 24
M  V30 26 1 6 25
M  V30 27 1 7 26
M  V30 28 1 7 27
M  V30 29 1 8 28
M  V30 30 1 14 29
M  V30 31 1 14 30
M  V30 END BOND
M  V30 END CTAB
M  END
