
     RDKit          3D

  0  0  0  0  0  0  0  0  0  0999 V3000
M  V30 BEGIN CTAB
M  V30 COUNTS 23 24 0 0 0
M  V30 BEGIN ATOM
M  V30 1 N -2.49216 -2.54046 -0.361082 0
M  V30 2 N -2.08698 -1.60172 0.584346 0
M  V30 3 C -1.25882 -0.485801 0.305094 0
M  V30 4 C -1.90803 0.680568 -0.0641751 0
M  V30 5 C -1.13822 1.78611 -0.343398 0
M  V30 6 N -1.81391 2.98031 -0.722037 0
M  V30 7 N 0.196468 1.68918 -0.247259 0
M  V30 8 C 0.808277 0.544363 0.113887 0
M  V30 9 N 0.0980088 -0.559823 0.395763 0
M  V30 10 C 2.31153 0.496183 0.20462 0
M  V30 11 C 2.94455 -0.497009 1.07327 0
M  V30 12 C 2.9636 -0.730647 -0.432828 0
M  V30 13 H -2.55453 -2.13046 -1.3276 0
M  V30 14 H -1.80814 -3.33899 -0.330673 0
M  V30 15 H -2.41463 -1.72854 1.56186 0
M  V30 16 H -2.99986 0.729804 -0.134164 0
M  V30 17 H -2.02347 3.65395 0.047825 0
M  V30 18 H -2.09614 3.19978 -1.6975 0
M  V30 19 H 2.85128 1.43414 -0.0379783 0
M  V30 20 H 3.9495 -0.280134 1.5017 0
M  V30 21 H 2.28373 -1.18115 1.68025 0
M  V30 22 H 2.27995 -1.50982 -0.789291 0
M  V30 23 H 3.908 -0.609834 -0.980617 0
M  V30 END ATOM
M  V30 BEGIN BOND
M  V30 1 1 1 2
M  V30 2 1 2 3
M  V30 3 2 3 4
M  V30 4 1 4 5
M  V30 5 1 5 6
M  V30 6 2 5 7
M  V30 7 1 7 8
M  V30 8 2 8 9
M  V30 9 1 8 10
M  V30 10 1 10 11
M  V30 11 1 11 12
M  V30 12 1 9 3
M  V30 13 1 12 10
M  V30 14 1 1 13
M  V30 15 1 1 14
M  V30 16 1 2 15
M  V30 17 1 4 16
M  V30 18 1 6 17
M  V30 19 1 6 18
M  V30 20 1 10 19
M  V30 21 1 11 20
M  V30 22 1 11 21
M  V30 23 1 12 22
M  V30 24 1 12 23
M  V30 END BOND
M  V30 END CTAB
M  END
