
     RDKit          3D

  0  0  0  0  0  0  0  0  0  0999 V3000
M  V30 BEGIN CTAB
M  V30 COUNTS 31 32 0 0 0
M  V30 BEGIN ATOM
M  V30 1 N 5.55575 0.916397 0.851153 0
M  V30 2 N 4.7002 1.25114 -0.196104 0
M  V30 3 C 3.45229 0.567416 -0.307203 0
M  V30 4 C 2.2573 1.18152 0.0464729 0
M  V30 5 C 1.06552 0.484814 -0.047475 0
M  V30 6 C 1.0022 -0.797063 -0.473276 0
M  V30 7 C 2.19008 -1.41133 -0.828916 0
M  V30 8 C 3.39891 -0.734195 -0.746021 0
M  V30 9 S -0.446047 -1.75345 -0.551612 0
M  V30 10 O -0.542793 -2.36174 -1.94941 0
M  V30 11 O -0.381074 -2.86844 0.419523 0
M  V30 12 C -1.88268 -0.823583 -0.289803 0
M  V30 13 C -2.14837 -0.184425 0.908937 0
M  V30 14 C -3.31942 0.497704 1.1276 0
M  V30 15 C -4.29254 0.574379 0.142165 0
M  V30 16 N -5.5255 1.27326 0.352373 0
M  V30 17 C -4.02786 -0.0626096 -1.05608 0
M  V30 18 C -2.83638 -0.753979 -1.27423 0
M  V30 19 H 5.56404 -0.147361 0.995345 0
M  V30 20 H 6.56554 1.11032 0.602753 0
M  V30 21 H 4.95359 1.97253 -0.891902 0
M  V30 22 H 2.31704 2.21007 0.391413 0
M  V30 23 H 0.169163 0.979759 0.22561 0
M  V30 24 H 2.2495 -2.44356 -1.18158 0
M  V30 25 H 4.31651 -1.2265 -1.01928 0
M  V30 26 H -1.3605 -0.240932 1.66954 0
M  V30 27 H -3.46767 0.977537 2.09241 0
M  V30 28 H -6.18679 0.903513 1.07421 0
M  V30 29 H -5.80753 2.12824 -0.173434 0
M  V30 30 H -4.80598 0.00713721 -1.82267 0
M  V30 31 H -2.72649 -1.22654 -2.25498 0
M  V30 END ATOM
M  V30 BEGIN BOND
M  V30 1 1 1 2
M  V30 2 1 2 3
M  V30 3 2 3 4
M  V30 4 1 4 5
M  V30 5 2 5 6
M  V30 6 1 6 7
M  V30 7 2 7 8
M  V30 8 1 6 9
M  V30 9 2 9 10
M  V30 10 2 9 11
M  V30 11 1 9 12
M  V30 12 2 12 13
M  V30 13 1 13 14
M  V30 14 2 14 15
M  V30 15 1 15 16
M  V30 16 1 15 17
M  V30 17 2 17 18
M  V30 18 1 8 3
M  V30 19 1 18 12
M  V30 20 1 1 19
M  V30 21 1 1 20
M  V30 22 1 2 21
M  V30 23 1 4 22
M  V30 24 1 5 23
M  V30 25 1 7 24
M  V30 26 1 8 25
M  V30 27 1 13 26
M  V30 28 1 14 27
M  V30 29 1 16 28
M  V30 30 1 16 29
M  V30 31 1 17 30
M  V30 32 1 18 31
M  V30 END BOND
M  V30 END CTAB
M  END
