
     RDKit          3D

  0  0  0  0  0  0  0  0  0  0999 V3000
M  V30 BEGIN CTAB
M  V30 COUNTS 29 30 0 0 0
M  V30 BEGIN ATOM
M  V30 1 N 3.74058 2.45102 1.41777 0
M  V30 2 C 3.43183 1.24271 0.711815 0
M  V30 3 N 4.5062 0.476988 0.225318 0
M  V30 4 N 2.19163 0.954728 0.579502 0
M  V30 5 C 1.67445 -0.174477 -0.073195 0
M  V30 6 N 2.44633 -1.10455 -0.647716 0
M  V30 7 C 1.93964 -2.18307 -1.27074 0
M  V30 8 C 0.559903 -2.34827 -1.32606 0
M  V30 9 Cl -0.17925 -3.72005 -2.11561 0
M  V30 10 C -0.278687 -1.41623 -0.748313 0
M  V30 11 C 0.30538 -0.330483 -0.123389 0
M  V30 12 O -0.510965 0.63136 0.471324 0
M  V30 13 C -1.89209 0.500563 0.436483 0
M  V30 14 C -2.57542 -0.169344 1.43571 0
M  V30 15 C -3.96169 -0.298992 1.398 0
M  V30 16 C -4.68231 0.243817 0.353522 0
M  V30 17 C -4.01538 0.914615 -0.650219 0
M  V30 18 C -2.63074 1.03379 -0.595223 0
M  V30 19 H 4.34296 2.33877 2.26111 0
M  V30 20 H 3.37804 3.38246 1.09703 0
M  V30 21 H 4.61058 0.333434 -0.78403 0
M  V30 22 H 5.19591 0.0554026 0.886423 0
M  V30 23 H 2.59295 -2.9161 -1.72495 0
M  V30 24 H -1.36023 -1.51015 -0.770612 0
M  V30 25 H -1.9881 -0.585824 2.24345 0
M  V30 26 H -4.45666 -0.838664 2.21321 0
M  V30 27 H -5.74423 0.138057 0.335469 0
M  V30 28 H -4.5668 1.33793 -1.46281 0
M  V30 29 H -2.07385 1.56055 -1.37731 0
M  V30 END ATOM
M  V30 BEGIN BOND
M  V30 1 1 1 2
M  V30 2 1 2 3
M  V30 3 2 2 4
M  V30 4 1 4 5
M  V30 5 2 5 6
M  V30 6 1 6 7
M  V30 7 2 7 8
M  V30 8 1 8 9
M  V30 9 1 8 10
M  V30 10 2 10 11
M  V30 11 1 11 12
M  V30 12 1 12 13
M  V30 13 2 13 14
M  V30 14 1 14 15
M  V30 15 2 15 16
M  V30 16 1 16 17
M  V30 17 2 17 18
M  V30 18 1 11 5
M  V30 19 1 18 13
M  V30 20 1 1 19
M  V30 21 1 1 20
M  V30 22 1 3 21
M  V30 23 1 3 22
M  V30 24 1 7 23
M  V30 25 1 10 24
M  V30 26 1 14 25
M  V30 27 1 15 26
M  V30 28 1 16 27
M  V30 29 1 17 28
M  V30 30 1 18 29
M  V30 END BOND
M  V30 END CTAB
M  END
