
     RDKit          3D

  0  0  0  0  0  0  0  0  0  0999 V3000
M  V30 BEGIN CTAB
M  V30 COUNTS 24 24 0 0 0
M  V30 BEGIN ATOM
M  V30 1 C -2.51194 -1.51438 0.550626 0
M  V30 2 N -2.03138 -0.242718 0.096747 0
M  V30 3 C -2.99603 0.779635 -0.259523 0
M  V30 4 C -0.63906 0.0687601 -0.0225516 0
M  V30 5 C 0.335631 -0.854401 0.298567 0
M  V30 6 C 1.67 -0.533672 0.176337 0
M  V30 7 N 2.70822 -1.47359 0.503003 0
M  V30 8 C 2.11456 0.705877 -0.266014 0
M  V30 9 N 3.50124 0.998412 -0.37859 0
M  V30 10 C 1.13063 1.61901 -0.583513 0
M  V30 11 C -0.206368 1.30196 -0.462571 0
M  V30 12 H -3.48614 -1.33188 1.09197 0
M  V30 13 H -2.81112 -2.18186 -0.310108 0
M  V30 14 H -1.86286 -2.02021 1.26875 0
M  V30 15 H -2.80319 1.05429 -1.33483 0
M  V30 16 H -4.0261 0.478928 -0.0893036 0
M  V30 17 H -2.82236 1.72106 0.317463 0
M  V30 18 H 0.0731014 -1.84259 0.650635 0
M  V30 19 H 3.158 -2.08469 -0.190132 0
M  V30 20 H 2.99528 -1.51267 1.49703 0
M  V30 21 H 3.83973 1.40358 -1.27448 0
M  V30 22 H 4.20678 0.838701 0.366948 0
M  V30 23 H 1.45041 2.59048 -0.930011 0
M  V30 24 H -0.987054 2.03198 -0.716454 0
M  V30 END ATOM
M  V30 BEGIN BOND
M  V30 1 1 1 2
M  V30 2 1 2 3
M  V30 3 1 2 4
M  V30 4 2 4 5
M  V30 5 1 5 6
M  V30 6 1 6 7
M  V30 7 2 6 8
M  V30 8 1 8 9
M  V30 9 1 8 10
M  V30 10 2 10 11
M  V30 11 1 11 4
M  V30 12 1 1 12
M  V30 13 1 1 13
M  V30 14 1 1 14
M  V30 15 1 3 15
M  V30 16 1 3 16
M  V30 17 1 3 17
M  V30 18 1 5 18
M  V30 19 1 7 19
M  V30 20 1 7 20
M  V30 21 1 9 21
M  V30 22 1 9 22
M  V30 23 1 10 23
M  V30 24 1 11 24
M  V30 END BOND
M  V30 END CTAB
M  END
