
     RDKit          3D

  0  0  0  0  0  0  0  0  0  0999 V3000
M  V30 BEGIN CTAB
M  V30 COUNTS 76 75 0 0 0
M  V30 BEGIN ATOM
M  V30 1 C -4.61841 1.65498 1.08425 0
M  V30 2 N -4.60862 1.39124 -0.312322 0
M  V30 3 C -5.4896 0.33284 -0.741386 0
M  V30 4 C -6.91498 0.802899 -0.557155 0
M  V30 5 C -7.81957 -0.323127 -1.01731 0
M  V30 6 C -9.26996 0.00479125 -0.899719 0
M  V30 7 C -9.74741 0.317161 0.479273 0
M  V30 8 C -9.53871 -0.828714 1.43636 0
M  V30 9 N -10.2384 -2.02542 1.0252 0
M  V30 10 C -3.32231 1.34587 -0.941096 0
M  V30 11 C -2.49304 0.163931 -0.520866 0
M  V30 12 C -1.13975 0.141973 -1.22089 0
M  V30 13 C -0.424456 -1.08189 -0.727772 0
M  V30 14 C 0.917692 -1.25965 -1.33553 0
M  V30 15 C 1.89253 -0.118125 -1.06915 0
M  V30 16 C 2.13571 0.0750036 0.383605 0
M  V30 17 C 3.06949 1.1653 0.714473 0
M  V30 18 N 4.4049 1.10953 0.245193 0
M  V30 19 C 4.63449 1.30527 -1.14413 0
M  V30 20 C 5.05664 -0.0850363 0.761201 0
M  V30 21 C 6.46679 -0.244553 0.315043 0
M  V30 22 C 7.40667 0.839965 0.70634 0
M  V30 23 C 8.7795 0.550032 0.169448 0
M  V30 24 C 9.28901 -0.74533 0.705322 0
M  V30 25 C 10.7059 -1.04224 0.176351 0
M  V30 26 N 11.0858 -2.32343 0.766446 0
M  V30 27 H -3.62226 1.7424 1.55871 0
M  V30 28 H -5.1998 2.60542 1.27164 0
M  V30 29 H -5.24164 0.863455 1.59196 0
M  V30 30 H -5.2772 0.0942966 -1.78084 0
M  V30 31 H -5.36732 -0.593719 -0.142798 0
M  V30 32 H -7.12592 1.73791 -1.11214 0
M  V30 33 H -7.15735 1.00135 0.500289 0
M  V30 34 H -7.53054 -1.22501 -0.439008 0
M  V30 35 H -7.59641 -0.518551 -2.07698 0
M  V30 36 H -9.49767 0.859444 -1.56281 0
M  V30 37 H -9.8481 -0.856791 -1.29434 0
M  V30 38 H -9.18488 1.18893 0.860391 0
M  V30 39 H -10.844 0.514529 0.410483 0
M  V30 40 H -10.0264 -0.505796 2.39835 0
M  V30 41 H -8.4803 -0.98018 1.6483 0
M  V30 42 H -10.6528 -2.56443 1.80279 0
M  V30 43 H -9.59535 -2.60576 0.435592 0
M  V30 44 H -3.44399 1.30123 -2.04174 0
M  V30 45 H -2.79295 2.29497 -0.712706 0
M  V30 46 H -2.99659 -0.792534 -0.62283 0
M  V30 47 H -2.25258 0.303679 0.571907 0
M  V30 48 H -1.24642 0.0920259 -2.31529 0
M  V30 49 H -0.642048 1.08261 -0.963054 0
M  V30 50 H -1.0314 -1.96981 -1.03097 0
M  V30 51 H -0.413805 -1.121 0.391284 0
M  V30 52 H 1.40167 -2.16793 -0.927583 0
M  V30 53 H 0.793818 -1.31111 -2.43975 0
M  V30 54 H 2.8039 -0.430916 -1.64619 0
M  V30 55 H 1.54533 0.824084 -1.51281 0
M  V30 56 H 1.13667 0.374249 0.840587 0
M  V30 57 H 2.3579 -0.884527 0.918262 0
M  V30 58 H 3.09219 1.30318 1.82621 0
M  V30 59 H 2.61416 2.11847 0.299562 0
M  V30 60 H 4.99939 0.445974 -1.71215 0
M  V30 61 H 3.72058 1.77994 -1.6095 0
M  V30 62 H 5.42431 2.10478 -1.31565 0
M  V30 63 H 5.02132 -0.00442265 1.86889 0
M  V30 64 H 4.50219 -1.00815 0.463807 0
M  V30 65 H 6.83332 -1.18231 0.842887 0
M  V30 66 H 6.55685 -0.434056 -0.769017 0
M  V30 67 H 7.08143 1.85449 0.389925 0
M  V30 68 H 7.47269 0.821151 1.83068 0
M  V30 69 H 9.48443 1.38951 0.409524 0
M  V30 70 H 8.6974 0.504121 -0.939847 0
M  V30 71 H 9.37428 -0.738033 1.80111 0
M  V30 72 H 8.68712 -1.59706 0.303126 0
M  V30 73 H 11.4171 -0.263774 0.446795 0
M  V30 74 H 10.5856 -1.21037 -0.911296 0
M  V30 75 H 10.5088 -3.03961 0.262034 0
M  V30 76 H 10.7354 -2.31962 1.74517 0
M  V30 END ATOM
M  V30 BEGIN BOND
M  V30 1 1 1 2
M  V30 2 1 2 3
M  V30 3 1 3 4
M  V30 4 1 4 5
M  V30 5 1 5 6
M  V30 6 1 6 7
M  V30 7 1 7 8
M  V30 8 1 8 9
M  V30 9 1 2 10
M  V30 10 1 10 11
M  V30 11 1 11 12
M  V30 12 1 12 13
M  V30 13 1 13 14
M  V30 14 1 14 15
M  V30 15 1 15 16
M  V30 16 1 16 17
M  V30 17 1 17 18
M  V30 18 1 18 19
M  V30 19 1 18 20
M  V30 20 1 20 21
M  V30 21 1 21 22
M  V30 22 1 22 23
M  V30 23 1 23 24
M  V30 24 1 24 25
M  V30 25 1 25 26
M  V30 26 1 1 27
M  V30 27 1 1 28
M  V30 28 1 1 29
M  V30 29 1 3 30
M  V30 30 1 3 31
M  V30 31 1 4 32
M  V30 32 1 4 33
M  V30 33 1 5 34
M  V30 34 1 5 35
M  V30 35 1 6 36
M  V30 36 1 6 37
M  V30 37 1 7 38
M  V30 38 1 7 39
M  V30 39 1 8 40
M  V30 40 1 8 41
M  V30 41 1 9 42
M  V30 42 1 9 43
M  V30 43 1 10 44
M  V30 44 1 10 45
M  V30 45 1 11 46
M  V30 46 1 11 47
M  V30 47 1 12 48
M  V30 48 1 12 49
M  V30 49 1 13 50
M  V30 50 1 13 51
M  V30 51 1 14 52
M  V30 52 1 14 53
M  V30 53 1 15 54
M  V30 54 1 15 55
M  V30 55 1 16 56
M  V30 56 1 16 57
M  V30 57 1 17 58
M  V30 58 1 17 59
M  V30 59 1 19 60
M  V30 60 1 19 61
M  V30 61 1 19 62
M  V30 62 1 20 63
M  V30 63 1 20 64
M  V30 64 1 21 65
M  V30 65 1 21 66
M  V30 66 1 22 67
M  V30 67 1 22 68
M  V30 68 1 23 69
M  V30 69 1 23 70
M  V30 70 1 24 71
M  V30 71 1 24 72
M  V30 72 1 25 73
M  V30 73 1 25 74
M  V30 74 1 26 75
M  V30 75 1 26 76
M  V30 END BOND
M  V30 END CTAB
M  END
