
     RDKit          3D

  0  0  0  0  0  0  0  0  0  0999 V3000
M  V30 BEGIN CTAB
M  V30 COUNTS 22 23 0 0 0
M  V30 BEGIN ATOM
M  V30 1 N -2.63927 -1.37966 1.14455 0
M  V30 2 C -1.73823 -0.454983 0.56806 0
M  V30 3 C -2.20549 0.741379 0.0350956 0
M  V30 4 N -3.60098 0.990888 0.0931281 0
M  V30 5 C -1.30955 1.62727 -0.521451 0
M  V30 6 O -1.72945 2.72819 -1.01321 0
M  V30 7 N 0.0207285 1.32881 -0.546702 0
M  V30 8 C 0.475114 0.17386 -0.0326203 0
M  V30 9 N -0.413921 -0.67215 0.503229 0
M  V30 10 C 1.91404 -0.1423 -0.0632769 0
M  V30 11 C 2.46727 -1.29609 0.437322 0
M  V30 12 C 3.8204 -1.22049 0.22339 0
M  V30 13 C 4.03573 -0.0122948 -0.404412 0
M  V30 14 O 2.88503 0.583565 -0.550171 0
M  V30 15 H -2.30644 -2.14968 1.75514 0
M  V30 16 H -3.65355 -1.28082 0.949097 0
M  V30 17 H -4.11818 1.09281 0.989799 0
M  V30 18 H -4.15228 1.07972 -0.785777 0
M  V30 19 H 0.65524 2.02879 -0.976867 0
M  V30 20 H 1.96451 -2.12657 0.915101 0
M  V30 21 H 4.59336 -1.96082 0.490118 0
M  V30 22 H 5.03591 0.320582 -0.700039 0
M  V30 END ATOM
M  V30 BEGIN BOND
M  V30 1 1 1 2
M  V30 2 2 2 3
M  V30 3 1 3 4
M  V30 4 1 3 5
M  V30 5 2 5 6
M  V30 6 1 5 7
M  V30 7 1 7 8
M  V30 8 2 8 9
M  V30 9 1 8 10
M  V30 10 2 10 11
M  V30 11 1 11 12
M  V30 12 2 12 13
M  V30 13 1 13 14
M  V30 14 1 9 2
M  V30 15 1 14 10
M  V30 16 1 1 15
M  V30 17 1 1 16
M  V30 18 1 4 17
M  V30 19 1 4 18
M  V30 20 1 7 19
M  V30 21 1 11 20
M  V30 22 1 12 21
M  V30 23 1 13 22
M  V30 END BOND
M  V30 END CTAB
M  END
