
     RDKit          3D

  0  0  0  0  0  0  0  0  0  0999 V3000
M  V30 BEGIN CTAB
M  V30 COUNTS 44 45 0 0 0
M  V30 BEGIN ATOM
M  V30 1 N -1.84368 -3.54203 0.709705 0
M  V30 2 C -2.02197 -2.2007 0.22855 0 CFG=2
M  V30 3 C -0.699792 -1.58285 -0.0793177 0
M  V30 4 C 0.237038 -1.53775 1.0947 0
M  V30 5 C 1.56652 -0.927461 0.808314 0 CFG=1
M  V30 6 N 2.30917 -1.61567 -0.220824 0
M  V30 7 C 1.39925 0.511266 0.466874 0
M  V30 8 C 2.72479 1.12611 0.182951 0
M  V30 9 C 3.42467 1.68457 1.20931 0
M  V30 10 C 4.65526 2.25146 0.92586 0
M  V30 11 C 5.15736 2.24979 -0.361806 0
M  V30 12 C 4.40926 1.67182 -1.36339 0
M  V30 13 C 3.17797 1.09876 -1.10923 0
M  V30 14 C -2.93929 -1.3798 1.04887 0
M  V30 15 C -3.162 -0.00545998 0.548978 0
M  V30 16 C -2.41161 1.04268 0.980012 0
M  V30 17 C -2.64673 2.32498 0.483201 0
M  V30 18 C -3.64629 2.51704 -0.447447 0
M  V30 19 C -4.41003 1.46877 -0.890085 0
M  V30 20 C -4.16598 0.22724 -0.394611 0
M  V30 21 H -1.46349 -4.18753 0.0704939 0
M  V30 22 H -2.53218 -3.80195 1.3697 0
M  V30 23 H -2.53363 -2.33764 -0.777378 0
M  V30 24 H -0.237785 -2.17949 -0.90686 0
M  V30 25 H -0.896566 -0.582901 -0.510821 0
M  V30 26 H 0.411358 -2.56149 1.5166 0
M  V30 27 H -0.24329 -0.972241 1.9106 0
M  V30 28 H 2.18344 -1.05698 1.7471 0
M  V30 29 H 2.97195 -2.31538 0.120951 0
M  V30 30 H 1.76995 -1.85137 -1.057 0
M  V30 31 H 0.708832 0.625089 -0.370606 0
M  V30 32 H 0.961361 1.02835 1.36401 0
M  V30 33 H 3.05459 1.697 2.21475 0
M  V30 34 H 5.24686 2.70715 1.71109 0
M  V30 35 H 6.11957 2.69124 -0.592523 0
M  V30 36 H 4.77065 1.65132 -2.38731 0
M  V30 37 H 2.57917 0.64173 -1.88283 0
M  V30 38 H -2.60807 -1.26079 2.11046 0
M  V30 39 H -3.92337 -1.91254 1.13883 0
M  V30 40 H -1.61284 0.941073 1.71701 0
M  V30 41 H -2.04106 3.14475 0.836819 0
M  V30 42 H -3.86109 3.49502 -0.857856 0
M  V30 43 H -5.20009 1.64135 -1.63025 0
M  V30 44 H -4.73817 -0.626535 -0.710871 0
M  V30 END ATOM
M  V30 BEGIN BOND
M  V30 1 1 1 2
M  V30 2 1 2 3
M  V30 3 1 3 4
M  V30 4 1 4 5
M  V30 5 1 5 6
M  V30 6 1 5 7
M  V30 7 1 7 8
M  V30 8 2 8 9
M  V30 9 1 9 10
M  V30 10 2 10 11
M  V30 11 1 11 12
M  V30 12 2 12 13
M  V30 13 1 2 14
M  V30 14 1 14 15
M  V30 15 2 15 16
M  V30 16 1 16 17
M  V30 17 2 17 18
M  V30 18 1 18 19
M  V30 19 2 19 20
M  V30 20 1 13 8
M  V30 21 1 20 15
M  V30 22 1 1 21
M  V30 23 1 1 22
M  V30 24 1 2 23 CFG=3
M  V30 25 1 3 24
M  V30 26 1 3 25
M  V30 27 1 4 26
M  V30 28 1 4 27
M  V30 29 1 5 28 CFG=1
M  V30 30 1 6 29
M  V30 31 1 6 30
M  V30 32 1 7 31
M  V30 33 1 7 32
M  V30 34 1 9 33
M  V30 35 1 10 34
M  V30 36 1 11 35
M  V30 37 1 12 36
M  V30 38 1 13 37
M  V30 39 1 14 38
M  V30 40 1 14 39
M  V30 41 1 16 40
M  V30 42 1 17 41
M  V30 43 1 18 42
M  V30 44 1 19 43
M  V30 45 1 20 44
M  V30 END BOND
M  V30 END CTAB
M  END
