
     RDKit          3D

  0  0  0  0  0  0  0  0  0  0999 V3000
M  V30 BEGIN CTAB
M  V30 COUNTS 31 31 0 0 0
M  V30 BEGIN ATOM
M  V30 1 C 4.47782 0.884465 0.528321 0
M  V30 2 C 3.72807 0.999053 -0.776734 0
M  V30 3 O 2.49925 0.40582 -0.879068 0
M  V30 4 C 2.13877 -0.912291 -0.601704 0
M  V30 5 O 3.11908 -1.59587 -0.153538 0
M  V30 6 C 0.842927 -1.51438 -0.763912 0
M  V30 7 C -0.353441 -0.847548 -0.284922 0
M  V30 8 C -0.49952 0.498066 -0.0462809 0
M  V30 9 C -1.69452 1.0928 0.328566 0
M  V30 10 N -1.84092 2.47947 0.590928 0
M  V30 11 C -2.80417 0.295787 0.464344 0
M  V30 12 C -2.70038 -1.0468 0.237717 0
M  V30 13 C -1.49565 -1.61387 -0.128735 0
M  V30 14 N -1.4659 -3.02756 -0.322427 0
M  V30 15 C -4.14988 0.905195 0.798087 0
M  V30 16 F -5.04515 -0.125632 0.918701 0
M  V30 17 F -4.09585 1.74024 1.85753 0
M  V30 18 F -4.47816 1.66312 -0.357085 0
M  V30 19 H 5.37189 1.59613 0.390046 0
M  V30 20 H 4.9897 -0.106087 0.614799 0
M  V30 21 H 3.95995 1.23651 1.41208 0
M  V30 22 H 3.52603 2.12575 -0.926265 0
M  V30 23 H 4.45046 0.749951 -1.57541 0
M  V30 24 H 0.883357 -2.52941 -0.226616 0
M  V30 25 H 0.62723 -1.83869 -1.82628 0
M  V30 26 H 0.321995 1.18265 -0.140243 0
M  V30 27 H -2.33908 3.06049 -0.118714 0
M  V30 28 H -1.4906 2.97988 1.43156 0
M  V30 29 H -3.58606 -1.66506 0.351356 0
M  V30 30 H -1.40599 -3.42345 -1.28113 0
M  V30 31 H -1.49128 -3.64873 0.485026 0
M  V30 END ATOM
M  V30 BEGIN BOND
M  V30 1 1 1 2
M  V30 2 1 2 3
M  V30 3 1 3 4
M  V30 4 2 4 5
M  V30 5 1 4 6
M  V30 6 1 6 7
M  V30 7 2 7 8
M  V30 8 1 8 9
M  V30 9 1 9 10
M  V30 10 2 9 11
M  V30 11 1 11 12
M  V30 12 2 12 13
M  V30 13 1 13 14
M  V30 14 1 11 15
M  V30 15 1 15 16
M  V30 16 1 15 17
M  V30 17 1 15 18
M  V30 18 1 13 7
M  V30 19 1 1 19
M  V30 20 1 1 20
M  V30 21 1 1 21
M  V30 22 1 2 22
M  V30 23 1 2 23
M  V30 24 1 6 24
M  V30 25 1 6 25
M  V30 26 1 8 26
M  V30 27 1 10 27
M  V30 28 1 10 28
M  V30 29 1 12 29
M  V30 30 1 14 30
M  V30 31 1 14 31
M  V30 END BOND
M  V30 END CTAB
M  END
