
     RDKit          3D

  0  0  0  0  0  0  0  0  0  0999 V3000
M  V30 BEGIN CTAB
M  V30 COUNTS 25 25 0 0 0
M  V30 BEGIN ATOM
M  V30 1 N -2.78197 0.476003 -1.29831 0
M  V30 2 N -2.83897 -0.425119 -0.234432 0
M  V30 3 C -1.75649 -0.696717 0.38607 0
M  V30 4 C -0.494917 -0.0945684 0.00877996 0
M  V30 5 C 0.540053 -1.116 -0.395736 0
M  V30 6 C 1.81342 -0.480026 -0.85111 0
M  V30 7 C 2.26483 0.676141 -0.019101 0
M  V30 8 C 1.15208 1.60319 0.389414 0
M  V30 9 C 0.115937 0.76941 1.09474 0
M  V30 10 F 2.93066 0.24985 1.11271 0
M  V30 11 F 3.16929 1.4251 -0.754876 0
M  V30 12 N -1.79168 -1.60592 1.46553 0
M  V30 13 H -2.20406 0.281214 -2.1454 0
M  V30 14 H -3.31061 1.39104 -1.30836 0
M  V30 15 H -0.640353 0.57052 -0.867671 0
M  V30 16 H 0.700685 -1.89666 0.36632 0
M  V30 17 H 0.102704 -1.65802 -1.28602 0
M  V30 18 H 2.60685 -1.2583 -0.797216 0
M  V30 19 H 1.75645 -0.206045 -1.94422 0
M  V30 20 H 0.668007 2.06952 -0.492652 0
M  V30 21 H 1.59416 2.38259 1.03892 0
M  V30 22 H -0.625772 1.35622 1.64851 0
M  V30 23 H 0.651382 0.0682294 1.77879 0
M  V30 24 H -2.41552 -1.42312 2.27311 0
M  V30 25 H -1.20617 -2.45853 1.47335 0
M  V30 END ATOM
M  V30 BEGIN BOND
M  V30 1 1 1 2
M  V30 2 2 2 3 CFG=2
M  V30 3 1 3 4
M  V30 4 1 4 5
M  V30 5 1 5 6
M  V30 6 1 6 7
M  V30 7 1 7 8
M  V30 8 1 8 9
M  V30 9 1 7 10
M  V30 10 1 7 11
M  V30 11 1 3 12
M  V30 12 1 9 4
M  V30 13 1 1 13
M  V30 14 1 1 14
M  V30 15 1 4 15
M  V30 16 1 5 16
M  V30 17 1 5 17
M  V30 18 1 6 18
M  V30 19 1 6 19
M  V30 20 1 8 20
M  V30 21 1 8 21
M  V30 22 1 9 22
M  V30 23 1 9 23
M  V30 24 1 12 24
M  V30 25 1 12 25
M  V30 END BOND
M  V30 END CTAB
M  END
