
     RDKit          3D

  0  0  0  0  0  0  0  0  0  0999 V3000
M  V30 BEGIN CTAB
M  V30 COUNTS 21 21 0 0 0
M  V30 BEGIN ATOM
M  V30 1 N -0.747323 0.645769 1.85307 0
M  V30 2 C -1.19913 0.0899748 0.637397 0
M  V30 3 C -2.52715 0.139658 0.282359 0
M  V30 4 C -2.97568 -0.403579 -0.902586 0
M  V30 5 N -2.09221 -0.988535 -1.71604 0
M  V30 6 C -0.799428 -1.06205 -1.41765 0
M  V30 7 C -0.32287 -0.523024 -0.231418 0
M  V30 8 C 1.13583 -0.625025 0.0574191 0
M  V30 9 C 1.792 0.728178 -0.218963 0
M  V30 10 N 3.18617 0.601712 0.0584165 0
M  V30 11 H 0.162309 0.376819 2.25753 0
M  V30 12 H -1.352 1.3538 2.36513 0
M  V30 13 H -3.21736 0.631189 0.982303 0
M  V30 14 H -4.03604 -0.344114 -1.14654 0
M  V30 15 H -0.0681882 -1.54279 -2.08627 0
M  V30 16 H 1.32645 -0.8789 1.11249 0
M  V30 17 H 1.56354 -1.41908 -0.582166 0
M  V30 18 H 1.6411 0.976408 -1.2969 0
M  V30 19 H 1.27366 1.49954 0.411 0
M  V30 20 H 3.80107 1.12853 -0.600662 0
M  V30 21 H 3.45525 -0.384476 0.182091 0
M  V30 END ATOM
M  V30 BEGIN BOND
M  V30 1 1 1 2
M  V30 2 2 2 3
M  V30 3 1 3 4
M  V30 4 2 4 5
M  V30 5 1 5 6
M  V30 6 2 6 7
M  V30 7 1 7 8
M  V30 8 1 8 9
M  V30 9 1 9 10
M  V30 10 1 7 2
M  V30 11 1 1 11
M  V30 12 1 1 12
M  V30 13 1 3 13
M  V30 14 1 4 14
M  V30 15 1 6 15
M  V30 16 1 8 16
M  V30 17 1 8 17
M  V30 18 1 9 18
M  V30 19 1 9 19
M  V30 20 1 10 20
M  V30 21 1 10 21
M  V30 END BOND
M  V30 END CTAB
M  END
