
     RDKit          3D

  0  0  0  0  0  0  0  0  0  0999 V3000
M  V30 BEGIN CTAB
M  V30 COUNTS 57 61 0 0 0
M  V30 BEGIN ATOM
M  V30 1 N -2.4811 -0.0581887 -3.10584 0
M  V30 2 C -2.14725 0.119689 -2.0153 0
M  V30 3 C -1.78125 0.278252 -0.656251 0
M  V30 4 C -2.80422 0.0154296 0.276479 0
M  V30 5 N -2.54043 -0.00130126 1.59518 0
M  V30 6 C -1.34715 0.216568 2.12749 0
M  V30 7 C -0.319176 0.479941 1.25203 0
M  V30 8 C -0.540916 0.514609 -0.145497 0
M  V30 9 C 0.513741 0.770783 -0.985963 0
M  V30 10 C 0.665104 0.962715 -2.39155 0
M  V30 11 O -0.0566242 1.35692 -3.25108 0
M  V30 12 C 2.10871 0.537683 -2.64764 0
M  V30 13 N 2.70642 1.25885 -1.47542 0
M  V30 14 C 1.78873 0.968616 -0.393772 0
M  V30 15 N 1.9639 0.921525 0.923594 0
M  V30 16 C 0.943914 0.684599 1.76771 0
M  V30 17 N 1.15441 0.644534 3.16807 0
M  V30 18 C 3.87058 2.03599 -1.39204 0
M  V30 19 C 5.17737 1.28662 -1.54472 0
M  V30 20 C 5.33541 0.254107 -0.497266 0
M  V30 21 C 5.91586 0.515267 0.726368 0
M  V30 22 C 6.05928 -0.465593 1.69315 0
M  V30 23 C 5.60671 -1.75079 1.42613 0
M  V30 24 C 5.03369 -1.99134 0.206744 0
M  V30 25 C 4.88736 -1.01843 -0.761804 0
M  V30 26 N -1.13716 0.181663 3.5531 0
M  V30 27 N -4.10629 -0.23845 -0.192966 0
M  V30 28 C -4.42853 -1.4245 -0.928956 0
M  V30 29 C -5.47954 -2.24047 -0.146372 0
M  V30 30 C -6.60545 -1.36109 0.268138 0
M  V30 31 C -6.52625 0.0643182 -0.160369 0
M  V30 32 C -5.16278 0.699067 0.0705821 0
M  V30 33 H 2.26768 -0.515816 -2.5183 0
M  V30 34 H 2.46573 0.944763 -3.5916 0
M  V30 35 H 1.07496 1.48774 3.76618 0
M  V30 36 H 1.40344 -0.259876 3.61099 0
M  V30 37 H 3.90751 2.53745 -0.386424 0
M  V30 38 H 3.88197 2.91714 -2.10426 0
M  V30 39 H 6.00824 2.0085 -1.41405 0
M  V30 40 H 5.2801 0.819426 -2.53829 0
M  V30 41 H 6.28171 1.50219 0.974976 0
M  V30 42 H 6.51224 -0.280306 2.65983 0
M  V30 43 H 5.71434 -2.51908 2.17207 0
M  V30 44 H 4.68639 -3.01215 0.0235188 0
M  V30 45 H 4.42109 -1.34012 -1.68072 0
M  V30 46 H -0.892254 -0.713793 4.02469 0
M  V30 47 H -1.22339 1.02566 4.15686 0
M  V30 48 H -4.96358 -1.18986 -1.89178 0
M  V30 49 H -3.57093 -2.09044 -1.13874 0
M  V30 50 H -5.00699 -2.74875 0.721722 0
M  V30 51 H -5.82162 -3.02107 -0.838387 0
M  V30 52 H -7.56245 -1.7654 -0.174996 0
M  V30 53 H -6.77805 -1.45964 1.37539 0
M  V30 54 H -6.8842 0.210506 -1.20775 0
M  V30 55 H -7.24344 0.64409 0.475882 0
M  V30 56 H -5.10016 1.57885 -0.58423 0
M  V30 57 H -5.12541 1.02238 1.13807 0
M  V30 END ATOM
M  V30 BEGIN BOND
M  V30 1 3 1 2
M  V30 2 1 2 3
M  V30 3 2 3 4
M  V30 4 1 4 5
M  V30 5 2 5 6
M  V30 6 1 6 7
M  V30 7 2 7 8
M  V30 8 1 8 9
M  V30 9 1 9 10
M  V30 10 2 10 11
M  V30 11 1 10 12
M  V30 12 1 12 13
M  V30 13 1 13 14
M  V30 14 1 14 15
M  V30 15 2 15 16
M  V30 16 1 16 17
M  V30 17 1 13 18
M  V30 18 1 18 19
M  V30 19 1 19 20
M  V30 20 2 20 21
M  V30 21 1 21 22
M  V30 22 2 22 23
M  V30 23 1 23 24
M  V30 24 2 24 25
M  V30 25 1 6 26
M  V30 26 1 4 27
M  V30 27 1 27 28
M  V30 28 1 28 29
M  V30 29 1 29 30
M  V30 30 1 30 31
M  V30 31 1 31 32
M  V30 32 1 8 3
M  V30 33 2 14 9
M  V30 34 1 25 20
M  V30 35 1 32 27
M  V30 36 1 16 7
M  V30 37 1 12 33
M  V30 38 1 12 34
M  V30 39 1 17 35
M  V30 40 1 17 36
M  V30 41 1 18 37
M  V30 42 1 18 38
M  V30 43 1 19 39
M  V30 44 1 19 40
M  V30 45 1 21 41
M  V30 46 1 22 42
M  V30 47 1 23 43
M  V30 48 1 24 44
M  V30 49 1 25 45
M  V30 50 1 26 46
M  V30 51 1 26 47
M  V30 52 1 28 48
M  V30 53 1 28 49
M  V30 54 1 29 50
M  V30 55 1 29 51
M  V30 56 1 30 52
M  V30 57 1 30 53
M  V30 58 1 31 54
M  V30 59 1 31 55
M  V30 60 1 32 56
M  V30 61 1 32 57
M  V30 END BOND
M  V30 END CTAB
M  END
