
     RDKit          3D

  0  0  0  0  0  0  0  0  0  0999 V3000
M  V30 BEGIN CTAB
M  V30 COUNTS 28 28 0 0 0
M  V30 BEGIN ATOM
M  V30 1 C 3.12747 0.780671 -0.843025 0
M  V30 2 C 2.15975 0.120967 0.170844 0 CFG=2
M  V30 3 C 0.993241 -0.390211 -0.530785 0
M  V30 4 C -0.381106 -0.411392 0.0398548 0
M  V30 5 C -1.18005 0.697858 0.196458 0
M  V30 6 C -2.51593 0.557812 0.48239 0
M  V30 7 C -3.4605 1.73582 0.553102 0
M  V30 8 C -3.09166 -0.694897 0.627218 0
M  V30 9 N -2.29769 -1.75716 0.48058 0
M  V30 10 C -0.99519 -1.66146 0.197009 0
M  V30 11 N -0.153648 -2.78939 0.137229 0
M  V30 12 O 1.26227 -1.2984 -1.52852 0
M  V30 13 N 1.9888 1.00383 1.26956 0
M  V30 14 H 2.85808 1.8604 -0.889909 0
M  V30 15 H 4.15474 0.650223 -0.502031 0
M  V30 16 H 2.90643 0.322204 -1.80436 0
M  V30 17 H 2.79605 -0.783347 0.511219 0
M  V30 18 H 0.830887 0.610538 -1.32517 0
M  V30 19 H -0.740825 1.68288 0.0539297 0
M  V30 20 H -3.42164 2.20082 -0.486747 0
M  V30 21 H -4.52041 1.36843 0.601302 0
M  V30 22 H -3.17107 2.47725 1.25652 0
M  V30 23 H -4.1418 -0.811097 0.849152 0
M  V30 24 H -0.405587 -3.63682 -0.34052 0
M  V30 25 H 0.76099 -2.7147 0.63755 0
M  V30 26 H 1.82441 -2.05158 -1.31306 0
M  V30 27 H 1.89425 1.99542 0.979529 0
M  V30 28 H 2.91977 0.935326 1.82376 0
M  V30 END ATOM
M  V30 BEGIN BOND
M  V30 1 1 1 2
M  V30 2 1 2 3
M  V30 3 1 3 4
M  V30 4 2 4 5
M  V30 5 1 5 6
M  V30 6 1 6 7
M  V30 7 2 6 8
M  V30 8 1 8 9
M  V30 9 2 9 10
M  V30 10 1 10 11
M  V30 11 1 3 12
M  V30 12 1 2 13
M  V30 13 1 10 4
M  V30 14 1 1 14
M  V30 15 1 1 15
M  V30 16 1 1 16
M  V30 17 1 2 17 CFG=1
M  V30 18 1 3 18
M  V30 19 1 5 19
M  V30 20 1 7 20
M  V30 21 1 7 21
M  V30 22 1 7 22
M  V30 23 1 8 23
M  V30 24 1 11 24
M  V30 25 1 11 25
M  V30 26 1 12 26
M  V30 27 1 13 27
M  V30 28 1 13 28
M  V30 END BOND
M  V30 END CTAB
M  END
