
     RDKit          3D

  0  0  0  0  0  0  0  0  0  0999 V3000
M  V30 BEGIN CTAB
M  V30 COUNTS 20 20 0 0 0
M  V30 BEGIN ATOM
M  V30 1 N -3.46398 -0.331463 1.70764 0
M  V30 2 C -2.94414 -0.387138 0.669827 0
M  V30 3 C -2.28311 -0.487611 -0.655901 0
M  V30 4 C -0.814467 -0.40036 -0.361708 0
M  V30 5 C -0.0701235 -1.54507 -0.361825 0
M  V30 6 C 1.27459 -1.49389 -0.0922921 0
M  V30 7 C 1.87009 -0.267562 0.179774 0
M  V30 8 C 1.14154 0.89344 0.184737 0
M  V30 9 C -0.206224 0.807828 -0.0885427 0
M  V30 10 N -0.978283 1.99901 -0.0953264 0
M  V30 11 I 2.0554 2.76517 0.593778 0
M  V30 12 N 3.24732 -0.207909 0.45052 0
M  V30 13 H -2.53513 0.433564 -1.22728 0
M  V30 14 H -2.58031 -1.38213 -1.192 0
M  V30 15 H -0.560298 -2.49311 -0.581663 0
M  V30 16 H 1.83937 -2.41694 -0.0994886 0
M  V30 17 H -1.4726 2.35986 -0.940748 0
M  V30 18 H -1.03304 2.52272 0.805278 0
M  V30 19 H 3.88671 -0.886422 0.019543 0
M  V30 20 H 3.6267 0.518004 1.08568 0
M  V30 END ATOM
M  V30 BEGIN BOND
M  V30 1 3 1 2
M  V30 2 1 2 3
M  V30 3 1 3 4
M  V30 4 2 4 5
M  V30 5 1 5 6
M  V30 6 2 6 7
M  V30 7 1 7 8
M  V30 8 2 8 9
M  V30 9 1 9 10
M  V30 10 1 8 11
M  V30 11 1 7 12
M  V30 12 1 9 4
M  V30 13 1 3 13
M  V30 14 1 3 14
M  V30 15 1 5 15
M  V30 16 1 6 16
M  V30 17 1 10 17
M  V30 18 1 10 18
M  V30 19 1 12 19
M  V30 20 1 12 20
M  V30 END BOND
M  V30 END CTAB
M  END
