
     RDKit          3D

  0  0  0  0  0  0  0  0  0  0999 V3000
M  V30 BEGIN CTAB
M  V30 COUNTS 30 30 0 0 0
M  V30 BEGIN ATOM
M  V30 1 C -1.85818 1.3713 0.859798 0
M  V30 2 C -2.80597 0.41067 0.257093 0
M  V30 3 C -2.3744 -0.995517 0.0831529 0
M  V30 4 C -1.22348 -1.29945 -0.782097 0
M  V30 5 C 0.0858979 -0.732282 -0.471223 0
M  V30 6 N 0.611617 0.401043 -0.96403 0
M  V30 7 C 1.80669 0.905257 -0.671084 0
M  V30 8 N 2.32349 2.10274 -1.2124 0
M  V30 9 C 2.59853 0.205476 0.228127 0
M  V30 10 C 2.11699 -0.946104 0.756923 0
M  V30 11 O 2.81846 -1.5983 1.57552 0
M  V30 12 N 0.899777 -1.39066 0.411495 0
M  V30 13 C 3.94236 0.730654 0.58607 0
M  V30 14 N -3.5388 -1.67448 -0.54724 0
M  V30 15 H -1.07622 0.88188 1.44236 0
M  V30 16 H -2.4468 1.97141 1.63469 0
M  V30 17 H -1.51631 2.15248 0.150508 0
M  V30 18 H -3.12662 0.831143 -0.743695 0
M  V30 19 H -3.75221 0.366567 0.882137 0
M  V30 20 H -2.31965 -1.50012 1.09063 0
M  V30 21 H -1.54687 -1.02413 -1.84508 0
M  V30 22 H -1.06892 -2.42429 -0.901404 0
M  V30 23 H 1.94124 3.01124 -0.913894 0
M  V30 24 H 3.08397 2.07251 -1.9072 0
M  V30 25 H 0.579187 -2.27796 0.845796 0
M  V30 26 H 4.6769 0.235321 -0.0601887 0
M  V30 27 H 3.97026 1.82644 0.440285 0
M  V30 28 H 4.08347 0.546436 1.66043 0
M  V30 29 H -3.45659 -2.67987 -0.36799 0
M  V30 30 H -3.42781 -1.47942 -1.56855 0
M  V30 END ATOM
M  V30 BEGIN BOND
M  V30 1 1 1 2
M  V30 2 1 2 3
M  V30 3 1 3 4
M  V30 4 1 4 5
M  V30 5 2 5 6
M  V30 6 1 6 7
M  V30 7 1 7 8
M  V30 8 2 7 9
M  V30 9 1 9 10
M  V30 10 2 10 11
M  V30 11 1 10 12
M  V30 12 1 9 13
M  V30 13 1 3 14
M  V30 14 1 12 5
M  V30 15 1 1 15
M  V30 16 1 1 16
M  V30 17 1 1 17
M  V30 18 1 2 18
M  V30 19 1 2 19
M  V30 20 1 3 20
M  V30 21 1 4 21
M  V30 22 1 4 22
M  V30 23 1 8 23
M  V30 24 1 8 24
M  V30 25 1 12 25
M  V30 26 1 13 26
M  V30 27 1 13 27
M  V30 28 1 13 28
M  V30 29 1 14 29
M  V30 30 1 14 30
M  V30 END BOND
M  V30 END CTAB
M  END
