
     RDKit          3D

  0  0  0  0  0  0  0  0  0  0999 V3000
M  V30 BEGIN CTAB
M  V30 COUNTS 29 29 0 0 0
M  V30 BEGIN ATOM
M  V30 1 C 3.45075 1.13413 -0.578113 0
M  V30 2 C 2.55223 0.0286873 -0.0616532 0
M  V30 3 N 1.18447 0.48748 0.154125 0
M  V30 4 C 0.287722 -0.619068 0.408373 0
M  V30 5 C -1.06565 -0.0464601 0.638062 0
M  V30 6 N -1.64409 0.0729984 1.81592 0
M  V30 7 N -2.83077 0.591338 1.70403 0
M  V30 8 C -3.05336 0.831497 0.383166 0
M  V30 9 N -1.9374 0.42274 -0.25957 0
M  V30 10 N -1.73039 0.484169 -1.62359 0
M  V30 11 N -4.24686 1.38999 -0.117267 0
M  V30 12 C 0.636415 -1.43477 1.6367 0
M  V30 13 C 0.308938 -1.51773 -0.809676 0
M  V30 14 H 3.92077 1.68802 0.268172 0
M  V30 15 H 4.31381 0.714687 -1.15873 0
M  V30 16 H 2.93505 1.80648 -1.25434 0
M  V30 17 H 2.65541 -0.857857 -0.673505 0
M  V30 18 H 2.92008 -0.232174 1.00561 0
M  V30 19 H 1.12625 1.13188 0.965493 0
M  V30 20 H -2.01037 -0.294734 -2.22969 0
M  V30 21 H -1.28018 1.31243 -2.02335 0
M  V30 22 H -5.13813 0.8342 -0.144402 0
M  V30 23 H -4.32331 2.36167 -0.482677 0
M  V30 24 H 1.56367 -2.00097 1.53134 0
M  V30 25 H -0.172929 -2.2115 1.73046 0
M  V30 26 H 0.582984 -0.803669 2.53201 0
M  V30 27 H 0.98206 -2.38546 -0.652645 0
M  V30 28 H 0.707327 -0.944231 -1.67529 0
M  V30 29 H -0.69449 -1.94377 -1.02895 0
M  V30 END ATOM
M  V30 BEGIN BOND
M  V30 1 1 1 2
M  V30 2 1 2 3
M  V30 3 1 3 4
M  V30 4 1 4 5
M  V30 5 2 5 6
M  V30 6 1 6 7
M  V30 7 2 7 8
M  V30 8 1 8 9
M  V30 9 1 9 10
M  V30 10 1 8 11
M  V30 11 1 4 12
M  V30 12 1 4 13
M  V30 13 1 9 5
M  V30 14 1 1 14
M  V30 15 1 1 15
M  V30 16 1 1 16
M  V30 17 1 2 17
M  V30 18 1 2 18
M  V30 19 1 3 19
M  V30 20 1 10 20
M  V30 21 1 10 21
M  V30 22 1 11 22
M  V30 23 1 11 23
M  V30 24 1 12 24
M  V30 25 1 12 25
M  V30 26 1 12 26
M  V30 27 1 13 27
M  V30 28 1 13 28
M  V30 29 1 13 29
M  V30 END BOND
M  V30 END CTAB
M  END
