
     RDKit          3D

  0  0  0  0  0  0  0  0  0  0999 V3000
M  V30 BEGIN CTAB
M  V30 COUNTS 28 28 0 0 0
M  V30 BEGIN ATOM
M  V30 1 O 2.90202 0.86729 -1.84561 0
M  V30 2 C 2.88499 -0.200308 -0.947267 0
M  V30 3 C 2.48522 0.343217 0.432139 0
M  V30 4 N 1.20417 0.950589 0.451923 0
M  V30 5 C -0.0597759 0.372802 0.234277 0
M  V30 6 C -0.250712 -0.985593 0.151569 0
M  V30 7 C -1.51037 -1.5007 -0.0767052 0
M  V30 8 C -2.58366 -0.668209 -0.223065 0
M  V30 9 C -2.44445 0.702774 -0.148078 0
M  V30 10 C -1.17204 1.1793 0.0806583 0
M  V30 11 N -3.56742 1.5606 -0.301555 0
M  V30 12 N -3.91234 -1.15642 -0.461763 0
M  V30 13 C 2.73107 -0.720731 1.43286 0
M  V30 14 H 3.21932 1.69741 -1.40495 0
M  V30 15 H 2.09417 -0.881927 -1.3047 0
M  V30 16 H 3.86328 -0.711038 -0.873975 0
M  V30 17 H 3.2604 1.15326 0.619324 0
M  V30 18 H 1.18789 1.99959 0.665278 0
M  V30 19 H 0.57625 -1.69832 0.269927 0
M  V30 20 H -1.68542 -2.57516 -0.146386 0
M  V30 21 H -1.05797 2.27916 0.140847 0
M  V30 22 H -4.41904 1.22916 -0.751309 0
M  V30 23 H -3.52842 2.53969 0.0462587 0
M  V30 24 H -4.75861 -0.747791 -0.0595638 0
M  V30 25 H -3.99276 -1.98336 -1.09039 0
M  V30 26 H 3.69239 -0.534573 1.95121 0
M  V30 27 H 1.96487 -0.789422 2.23043 0
M  V30 28 H 2.87693 -1.72128 0.928609 0
M  V30 END ATOM
M  V30 BEGIN BOND
M  V30 1 1 1 2
M  V30 2 1 2 3
M  V30 3 1 3 4
M  V30 4 1 4 5
M  V30 5 2 5 6
M  V30 6 1 6 7
M  V30 7 2 7 8
M  V30 8 1 8 9
M  V30 9 2 9 10
M  V30 10 1 9 11
M  V30 11 1 8 12
M  V30 12 1 3 13
M  V30 13 1 10 5
M  V30 14 1 1 14
M  V30 15 1 2 15
M  V30 16 1 2 16
M  V30 17 1 3 17
M  V30 18 1 4 18
M  V30 19 1 6 19
M  V30 20 1 7 20
M  V30 21 1 10 21
M  V30 22 1 11 22
M  V30 23 1 11 23
M  V30 24 1 12 24
M  V30 25 1 12 25
M  V30 26 1 13 26
M  V30 27 1 13 27
M  V30 28 1 13 28
M  V30 END BOND
M  V30 END CTAB
M  END
