
     RDKit          3D

  0  0  0  0  0  0  0  0  0  0999 V3000
M  V30 BEGIN CTAB
M  V30 COUNTS 25 26 0 0 0
M  V30 BEGIN ATOM
M  V30 1 N 4.42787 0.65842 0.774276 0
M  V30 2 C 3.97177 -0.399937 -0.103129 0
M  V30 3 C 2.56214 -0.752398 0.330653 0
M  V30 4 C 2.36444 -1.70811 1.29367 0
M  V30 5 S 0.64567 -1.71244 1.39642 0
M  V30 6 C 0.311355 -0.519023 0.227182 0
M  V30 7 N 1.52103 -0.180834 -0.178851 0
M  V30 8 C -0.955862 0.0325839 -0.249487 0
M  V30 9 C -0.94627 0.996067 -1.20957 0
M  V30 10 C -2.0836 1.5754 -1.72126 0
M  V30 11 C -3.29513 1.12987 -1.20804 0
M  V30 12 C -3.32449 0.160042 -0.240495 0
M  V30 13 C -2.16648 -0.399033 0.249835 0
M  V30 14 N -4.5802 -0.263791 0.253705 0
M  V30 15 H 4.61668 0.322969 1.74221 0
M  V30 16 H 3.68407 1.39084 0.800863 0
M  V30 17 H 4.61845 -1.28258 -0.0664305 0
M  V30 18 H 3.98489 -0.0104135 -1.13139 0
M  V30 19 H 3.12541 -2.29578 1.8353 0
M  V30 20 H 0.00362569 1.33725 -1.60385 0
M  V30 21 H -2.03505 2.33794 -2.48346 0
M  V30 22 H -4.18396 1.56866 -1.59402 0
M  V30 23 H -2.18886 -1.14986 0.998867 0
M  V30 24 H -5.35543 -0.552098 -0.36861 0
M  V30 25 H -4.72208 -0.283752 1.28154 0
M  V30 END ATOM
M  V30 BEGIN BOND
M  V30 1 1 1 2
M  V30 2 1 2 3
M  V30 3 2 3 4
M  V30 4 1 4 5
M  V30 5 1 5 6
M  V30 6 2 6 7
M  V30 7 1 6 8
M  V30 8 2 8 9
M  V30 9 1 9 10
M  V30 10 2 10 11
M  V30 11 1 11 12
M  V30 12 2 12 13
M  V30 13 1 12 14
M  V30 14 1 7 3
M  V30 15 1 13 8
M  V30 16 1 1 15
M  V30 17 1 1 16
M  V30 18 1 2 17
M  V30 19 1 2 18
M  V30 20 1 4 19
M  V30 21 1 9 20
M  V30 22 1 10 21
M  V30 23 1 11 22
M  V30 24 1 13 23
M  V30 25 1 14 24
M  V30 26 1 14 25
M  V30 END BOND
M  V30 END CTAB
M  END
