
     RDKit          3D

  0  0  0  0  0  0  0  0  0  0999 V3000
M  V30 BEGIN CTAB
M  V30 COUNTS 33 33 0 0 0
M  V30 BEGIN ATOM
M  V30 1 N 3.83593 2.2412 0.523198 0
M  V30 2 C 3.05074 1.43471 -0.352018 0
M  V30 3 C 1.94445 0.734314 0.406782 0
M  V30 4 C 1.12744 -0.118037 -0.564298 0
M  V30 5 C 0.0194194 -0.826604 0.163199 0
M  V30 6 C -0.958287 0.0209107 0.84935 0
M  V30 7 C -1.7462 0.990984 0.0765653 0
M  V30 8 C -2.6088 0.402215 -1.00889 0
M  V30 9 N -3.35313 1.43778 -1.71587 0
M  V30 10 O 0.675369 -1.5905 1.16402 0
M  V30 11 C 0.0511266 -2.80585 1.20555 0
M  V30 12 C -0.986356 -2.81089 0.106226 0
M  V30 13 O -0.554181 -1.74655 -0.686661 0
M  V30 14 H 4.85417 2.11002 0.401369 0
M  V30 15 H 3.54359 3.22222 0.482967 0
M  V30 16 H 2.53458 2.04738 -1.14404 0
M  V30 17 H 3.66212 0.699919 -0.912257 0
M  V30 18 H 1.24097 1.54272 0.745591 0
M  V30 19 H 2.30474 0.131014 1.24345 0
M  V30 20 H 1.79851 -0.914015 -0.954365 0
M  V30 21 H 0.808354 0.467726 -1.42524 0
M  V30 22 H -1.6802 -0.667336 1.38163 0
M  V30 23 H -0.471888 0.583722 1.69814 0
M  V30 24 H -1.11489 1.82383 -0.291786 0
M  V30 25 H -2.4656 1.48426 0.798069 0
M  V30 26 H -3.35418 -0.311802 -0.611567 0
M  V30 27 H -1.9304 -0.0331251 -1.77219 0
M  V30 28 H -3.37826 2.32582 -1.20028 0
M  V30 29 H -4.31777 1.10274 -1.95067 0
M  V30 30 H 0.825642 -3.59342 1.03636 0
M  V30 31 H -0.386379 -2.95616 2.20388 0
M  V30 32 H -1.99691 -2.65356 0.516727 0
M  V30 33 H -0.97372 -3.77561 -0.412941 0
M  V30 END ATOM
M  V30 BEGIN BOND
M  V30 1 1 1 2
M  V30 2 1 2 3
M  V30 3 1 3 4
M  V30 4 1 4 5
M  V30 5 1 5 6
M  V30 6 1 6 7
M  V30 7 1 7 8
M  V30 8 1 8 9
M  V30 9 1 5 10
M  V30 10 1 10 11
M  V30 11 1 11 12
M  V30 12 1 12 13
M  V30 13 1 13 5
M  V30 14 1 1 14
M  V30 15 1 1 15
M  V30 16 1 2 16
M  V30 17 1 2 17
M  V30 18 1 3 18
M  V30 19 1 3 19
M  V30 20 1 4 20
M  V30 21 1 4 21
M  V30 22 1 6 22
M  V30 23 1 6 23
M  V30 24 1 7 24
M  V30 25 1 7 25
M  V30 26 1 8 26
M  V30 27 1 8 27
M  V30 28 1 9 28
M  V30 29 1 9 29
M  V30 30 1 11 30
M  V30 31 1 11 31
M  V30 32 1 12 32
M  V30 33 1 12 33
M  V30 END BOND
M  V30 END CTAB
M  END
