
     RDKit          3D

  0  0  0  0  0  0  0  0  0  0999 V3000
M  V30 BEGIN CTAB
M  V30 COUNTS 29 30 0 0 0
M  V30 BEGIN ATOM
M  V30 1 N -4.32665 0.591579 -0.643025 0
M  V30 2 C -2.97619 0.446611 -0.240727 0
M  V30 3 C -1.96445 0.413644 -1.16186 0
M  V30 4 C -0.628422 0.270167 -0.762974 0
M  V30 5 C -0.279782 0.157671 0.557275 0
M  V30 6 C -1.33352 0.195448 1.45949 0
M  V30 7 C -2.65593 0.335543 1.0941 0
M  V30 8 N -3.6599 0.362633 2.09824 0
M  V30 9 N 1.0667 0.021027 0.955095 0
M  V30 10 C 2.24716 0.0790427 0.192501 0
M  V30 11 C 2.55173 1.36017 -0.522344 0
M  V30 12 S 4.11089 0.853089 -1.36798 0
M  V30 13 C 4.01729 -0.949359 -1.01315 0
M  V30 14 C 2.50111 -1.06622 -0.753145 0
M  V30 15 H -4.90044 -0.271097 -0.728879 0
M  V30 16 H -4.7074 1.52021 -0.838168 0
M  V30 17 H -2.22603 0.50265 -2.22469 0
M  V30 18 H 0.06758 0.253579 -1.56578 0
M  V30 19 H -1.06789 0.106477 2.52263 0
M  V30 20 H -3.55084 1.03096 2.88204 0
M  V30 21 H -4.48561 -0.263029 2.06221 0
M  V30 22 H 1.16133 -0.157832 2.02303 0
M  V30 23 H 3.1162 -0.0218052 0.944507 0
M  V30 24 H 2.82635 2.16037 0.197811 0
M  V30 25 H 1.87502 1.67315 -1.2995 0
M  V30 26 H 4.52091 -1.19953 -0.0733069 0
M  V30 27 H 4.3257 -1.53066 -1.88108 0
M  V30 28 H 2.36972 -1.99514 -0.198471 0
M  V30 29 H 2.00537 -1.01258 -1.71386 0
M  V30 END ATOM
M  V30 BEGIN BOND
M  V30 1 1 1 2
M  V30 2 2 2 3
M  V30 3 1 3 4
M  V30 4 2 4 5
M  V30 5 1 5 6
M  V30 6 2 6 7
M  V30 7 1 7 8
M  V30 8 1 5 9
M  V30 9 1 9 10
M  V30 10 1 10 11
M  V30 11 1 11 12
M  V30 12 1 12 13
M  V30 13 1 13 14
M  V30 14 1 7 2
M  V30 15 1 14 10
M  V30 16 1 1 15
M  V30 17 1 1 16
M  V30 18 1 3 17
M  V30 19 1 4 18
M  V30 20 1 6 19
M  V30 21 1 8 20
M  V30 22 1 8 21
M  V30 23 1 9 22
M  V30 24 1 10 23
M  V30 25 1 11 24
M  V30 26 1 11 25
M  V30 27 1 13 26
M  V30 28 1 13 27
M  V30 29 1 14 28
M  V30 30 1 14 29
M  V30 END BOND
M  V30 END CTAB
M  END
