
     RDKit          3D

  0  0  0  0  0  0  0  0  0  0999 V3000
M  V30 BEGIN CTAB
M  V30 COUNTS 17 16 0 0 0
M  V30 BEGIN ATOM
M  V30 1 N -1.991 -0.376328 -1.01702 0
M  V30 2 C -1.23332 0.0784604 0.0820158 0
M  V30 3 N -1.75926 0.908982 0.938016 0
M  V30 4 N -3.04385 1.40478 0.830838 0
M  V30 5 N 0.096948 -0.35026 0.257071 0
M  V30 6 O 0.948048 -0.672493 -0.753949 0
M  V30 7 C 2.13883 -1.21296 -0.1682 0
M  V30 8 C 3.19825 -0.236762 -0.550839 0
M  V30 9 C 3.96048 0.65616 -0.785576 0
M  V30 10 H -2.62214 -1.21934 -0.917127 0
M  V30 11 H -1.92825 0.145215 -1.91621 0
M  V30 12 H -3.31231 1.79764 -0.0796828 0
M  V30 13 H -3.72709 1.39169 1.65344 0
M  V30 14 H 0.413179 -0.325558 1.31781 0
M  V30 15 H 2.29504 -2.11246 -0.786682 0
M  V30 16 H 1.96477 -1.36701 0.844219 0
M  V30 17 H 4.60167 1.49024 -0.967577 0
M  V30 END ATOM
M  V30 BEGIN BOND
M  V30 1 1 1 2
M  V30 2 2 2 3 CFG=2
M  V30 3 1 3 4
M  V30 4 1 2 5
M  V30 5 1 5 6
M  V30 6 1 6 7
M  V30 7 1 7 8
M  V30 8 3 8 9
M  V30 9 1 1 10
M  V30 10 1 1 11
M  V30 11 1 4 12
M  V30 12 1 4 13
M  V30 13 1 5 14
M  V30 14 1 7 15
M  V30 15 1 7 16
M  V30 16 1 9 17
M  V30 END BOND
M  V30 END CTAB
M  END
