
     RDKit          3D

  0  0  0  0  0  0  0  0  0  0999 V3000
M  V30 BEGIN CTAB
M  V30 COUNTS 52 53 0 0 0
M  V30 BEGIN ATOM
M  V30 1 C 5.69004 -0.0215713 -2.78541 0
M  V30 2 C 5.14271 0.749476 -1.5951 0
M  V30 3 N 4.54012 -0.199423 -0.68806 0
M  V30 4 C 5.37326 -0.784549 0.344163 0
M  V30 5 C 5.36811 0.0250422 1.62126 0
M  V30 6 C 3.16659 -0.520981 -0.838624 0
M  V30 7 O 2.53275 0.0417199 -1.76818 0
M  V30 8 N 2.51581 -1.45512 0.0364999 0
M  V30 9 C 1.13076 -1.81268 -0.0728251 0
M  V30 10 C 0.237986 -0.749672 0.462301 0
M  V30 11 C 0.82263 0.283881 1.16049 0
M  V30 12 C -0.0154108 1.28899 1.66232 0
M  V30 13 C -1.3718 1.24366 1.46423 0
M  V30 14 C -1.97203 0.218805 0.769677 0
M  V30 15 C -1.12561 -0.768689 0.279543 0
M  V30 16 N -3.38252 0.164886 0.558562 0
M  V30 17 C -4.20306 -0.498621 1.51363 0
M  V30 18 N -3.54044 -1.09291 2.65547 0
M  V30 19 N -5.48153 -0.599635 1.42196 0
M  V30 20 C -6.14674 -0.0253378 0.311927 0
M  V30 21 N -7.58689 -0.121591 0.182566 0
M  V30 22 N -5.45104 0.581492 -0.575148 0
M  V30 23 C -4.02559 0.756838 -0.581901 0
M  V30 24 C -3.73923 2.23484 -0.707987 0
M  V30 25 C -3.50496 0.00167212 -1.81009 0
M  V30 26 H 6.78993 -0.159457 -2.65787 0
M  V30 27 H 5.21869 -1.03066 -2.85717 0
M  V30 28 H 5.44046 0.563794 -3.68911 0
M  V30 29 H 5.9765 1.32175 -1.13796 0
M  V30 30 H 4.36645 1.47718 -1.90261 0
M  V30 31 H 6.41111 -0.784686 -0.0420332 0
M  V30 32 H 5.11834 -1.84656 0.531353 0
M  V30 33 H 6.35674 0.0556197 2.11937 0
M  V30 34 H 5.06918 1.09015 1.40712 0
M  V30 35 H 4.57379 -0.375219 2.27692 0
M  V30 36 H 3.09331 -1.88423 0.782004 0
M  V30 37 H 0.922631 -1.94888 -1.16872 0
M  V30 38 H 0.960422 -2.78622 0.436718 0
M  V30 39 H 1.89628 0.344106 1.33382 0
M  V30 40 H 0.432335 2.11871 2.22043 0
M  V30 41 H -1.99197 2.02621 1.85865 0
M  V30 42 H -1.5631 -1.58476 -0.268162 0
M  V30 43 H -3.85909 -0.802246 3.60986 0
M  V30 44 H -2.77898 -1.78024 2.56368 0
M  V30 45 H -8.1511 0.721903 -0.0358052 0
M  V30 46 H -8.02351 -1.03303 0.311241 0
M  V30 47 H -4.40049 2.64884 -1.49754 0
M  V30 48 H -2.69309 2.42572 -1.06568 0
M  V30 49 H -3.96304 2.75937 0.222737 0
M  V30 50 H -3.66606 -1.07748 -1.68846 0
M  V30 51 H -2.43301 0.249039 -1.99159 0
M  V30 52 H -4.07665 0.350776 -2.69246 0
M  V30 END ATOM
M  V30 BEGIN BOND
M  V30 1 1 1 2
M  V30 2 1 2 3
M  V30 3 1 3 4
M  V30 4 1 4 5
M  V30 5 1 3 6
M  V30 6 2 6 7
M  V30 7 1 6 8
M  V30 8 1 8 9
M  V30 9 1 9 10
M  V30 10 2 10 11
M  V30 11 1 11 12
M  V30 12 2 12 13
M  V30 13 1 13 14
M  V30 14 2 14 15
M  V30 15 1 14 16
M  V30 16 1 16 17
M  V30 17 1 17 18
M  V30 18 2 17 19
M  V30 19 1 19 20
M  V30 20 1 20 21
M  V30 21 2 20 22
M  V30 22 1 22 23
M  V30 23 1 23 24
M  V30 24 1 23 25
M  V30 25 1 15 10
M  V30 26 1 23 16
M  V30 27 1 1 26
M  V30 28 1 1 27
M  V30 29 1 1 28
M  V30 30 1 2 29
M  V30 31 1 2 30
M  V30 32 1 4 31
M  V30 33 1 4 32
M  V30 34 1 5 33
M  V30 35 1 5 34
M  V30 36 1 5 35
M  V30 37 1 8 36
M  V30 38 1 9 37
M  V30 39 1 9 38
M  V30 40 1 11 39
M  V30 41 1 12 40
M  V30 42 1 13 41
M  V30 43 1 15 42
M  V30 44 1 18 43
M  V30 45 1 18 44
M  V30 46 1 21 45
M  V30 47 1 21 46
M  V30 48 1 24 47
M  V30 49 1 24 48
M  V30 50 1 24 49
M  V30 51 1 25 50
M  V30 52 1 25 51
M  V30 53 1 25 52
M  V30 END BOND
M  V30 END CTAB
M  END
