
     RDKit          3D

  0  0  0  0  0  0  0  0  0  0999 V3000
M  V30 BEGIN CTAB
M  V30 COUNTS 17 16 0 0 0
M  V30 BEGIN ATOM
M  V30 1 N 2.86195 0.536245 -0.658303 0
M  V30 2 C 1.82567 0.139052 0.214776 0
M  V30 3 N 2.07731 -0.0184279 1.45984 0
M  V30 4 C 0.455157 -0.10271 -0.25763 0
M  V30 5 N -0.420248 -0.499364 0.830909 0
M  V30 6 S -1.97686 -0.741678 0.10908 0
M  V30 7 O -1.77247 -1.28049 -1.26374 0
M  V30 8 O -2.6435 -1.8435 0.921023 0
M  V30 9 N -2.92016 0.679756 0.100972 0
M  V30 10 H 3.58699 -0.157967 -0.927644 0
M  V30 11 H 2.91812 1.50032 -1.03675 0
M  V30 12 H 3.04523 0.152432 1.79274 0
M  V30 13 H 0.00328906 0.76757 -0.769153 0
M  V30 14 H 0.401884 -0.949214 -1.00432 0
M  V30 15 H -0.452417 0.255261 1.55429 0
M  V30 16 H -3.39256 0.829322 -0.808914 0
M  V30 17 H -3.59738 0.7334 0.871038 0
M  V30 END ATOM
M  V30 BEGIN BOND
M  V30 1 1 1 2
M  V30 2 2 2 3 CFG=2
M  V30 3 1 2 4
M  V30 4 1 4 5
M  V30 5 1 5 6
M  V30 6 2 6 7
M  V30 7 2 6 8
M  V30 8 1 6 9
M  V30 9 1 1 10
M  V30 10 1 1 11
M  V30 11 1 3 12
M  V30 12 1 4 13
M  V30 13 1 4 14
M  V30 14 1 5 15
M  V30 15 1 9 16
M  V30 16 1 9 17
M  V30 END BOND
M  V30 END CTAB
M  END
