
     RDKit          3D

  0  0  0  0  0  0  0  0  0  0999 V3000
M  V30 BEGIN CTAB
M  V30 COUNTS 46 50 0 0 0
M  V30 BEGIN ATOM
M  V30 1 N -2.8397 -4.61937 -0.247154 0
M  V30 2 C -2.67346 -3.219 -0.0772273 0
M  V30 3 N -1.43711 -2.689 -0.0311111 0
M  V30 4 C -1.19564 -1.39117 0.12502 0
M  V30 5 C -2.28841 -0.555176 0.244948 0
M  V30 6 C -3.56884 -1.05367 0.203397 0
M  V30 7 N -3.71932 -2.37921 0.0424425 0
M  V30 8 C -4.73847 -0.200927 0.326601 0 CFG=2
M  V30 9 C -4.76936 1.00388 -0.623764 0
M  V30 10 C -5.47691 1.74427 0.514788 0 CFG=1
M  V30 11 C -4.73123 0.801802 1.46034 0
M  V30 12 N -5.09986 3.12612 0.634337 0
M  V30 13 N 0.134952 -0.930446 0.161164 0
M  V30 14 C 1.44115 -1.52733 0.067578 0
M  V30 15 C 1.95909 -0.386414 0.937959 0
M  V30 16 C 0.777082 0.352423 0.309082 0
M  V30 17 C 3.28206 0.0489845 0.451123 0
M  V30 18 N 3.54929 0.310928 -0.840967 0
M  V30 19 C 4.81988 0.686422 -1.01565 0
M  V30 20 C 5.38152 0.65537 0.258977 0
M  V30 21 N 4.42183 0.265921 1.11703 0
M  V30 22 C 6.71737 1.00947 0.354423 0
M  V30 23 C 7.47452 1.37532 -0.724512 0
M  V30 24 C 6.87707 1.39487 -1.98785 0
M  V30 25 C 5.5514 1.04915 -2.12162 0
M  V30 26 H -3.66532 -5.06153 0.183252 0
M  V30 27 H -2.1777 -5.20337 -0.775897 0
M  V30 28 H -2.10476 0.490403 0.3709 0
M  V30 29 H -5.72732 -0.690192 0.281694 0
M  V30 30 H -5.36501 0.865314 -1.52495 0
M  V30 31 H -3.76438 1.48112 -0.75964 0
M  V30 32 H -6.56686 1.54874 0.5721 0
M  V30 33 H -5.32409 0.511789 2.35244 0
M  V30 34 H -3.74097 1.24888 1.67916 0
M  V30 35 H -4.9411 3.32829 1.64821 0
M  V30 36 H -5.94293 3.69666 0.359276 0
M  V30 37 H 1.86937 -1.48178 -0.950293 0
M  V30 38 H 1.56639 -2.49468 0.59125 0
M  V30 39 H 1.87944 -0.564908 2.01233 0
M  V30 40 H 1.07201 0.842432 -0.636223 0
M  V30 41 H 0.27774 1.07149 0.968795 0
M  V30 42 H 4.55139 0.151562 2.14651 0
M  V30 43 H 7.18336 0.995709 1.32963 0
M  V30 44 H 8.51164 1.64355 -0.604487 0
M  V30 45 H 7.47149 1.68437 -2.85055 0
M  V30 46 H 5.08872 1.06292 -3.09061 0
M  V30 END ATOM
M  V30 BEGIN BOND
M  V30 1 1 1 2
M  V30 2 2 2 3
M  V30 3 1 3 4
M  V30 4 2 4 5
M  V30 5 1 5 6
M  V30 6 2 6 7
M  V30 7 1 6 8
M  V30 8 1 8 9
M  V30 9 1 9 10
M  V30 10 1 10 11
M  V30 11 1 10 12
M  V30 12 1 4 13
M  V30 13 1 13 14
M  V30 14 1 14 15
M  V30 15 1 15 16
M  V30 16 1 15 17
M  V30 17 2 17 18
M  V30 18 1 18 19
M  V30 19 2 19 20
M  V30 20 1 20 21
M  V30 21 1 20 22
M  V30 22 2 22 23
M  V30 23 1 23 24
M  V30 24 2 24 25
M  V30 25 1 7 2
M  V30 26 1 11 8
M  V30 27 1 16 13
M  V30 28 1 21 17
M  V30 29 1 25 19
M  V30 30 1 1 26
M  V30 31 1 1 27
M  V30 32 1 5 28
M  V30 33 1 8 29 CFG=1
M  V30 34 1 9 30
M  V30 35 1 9 31
M  V30 36 1 10 32 CFG=3
M  V30 37 1 11 33
M  V30 38 1 11 34
M  V30 39 1 12 35
M  V30 40 1 12 36
M  V30 41 1 14 37
M  V30 42 1 14 38
M  V30 43 1 15 39
M  V30 44 1 16 40
M  V30 45 1 16 41
M  V30 46 1 21 42
M  V30 47 1 22 43
M  V30 48 1 23 44
M  V30 49 1 24 45
M  V30 50 1 25 46
M  V30 END BOND
M  V30 END CTAB
M  END
