
     RDKit          3D

  0  0  0  0  0  0  0  0  0  0999 V3000
M  V30 BEGIN CTAB
M  V30 COUNTS 64 67 0 0 0
M  V30 BEGIN ATOM
M  V30 1 C -5.6466 1.06444 -1.55314 0
M  V30 2 C -5.66694 -0.345938 -0.971559 0
M  V30 3 C -5.27491 -1.3408 -2.05521 0
M  V30 4 N -7.00444 -0.647766 -0.575088 0
M  V30 5 C -7.38298 -0.921208 0.622104 0
M  V30 6 N -8.7573 -1.20164 0.857866 0
M  V30 7 N -6.40517 -0.928985 1.6532 0
M  V30 8 C -5.17142 -0.6824 1.47416 0
M  V30 9 N -4.1958 -0.691643 2.51113 0
M  V30 10 N -4.76076 -0.378542 0.138841 0
M  V30 11 C -3.37055 -0.0927272 -0.092087 0
M  V30 12 C -2.52816 -1.12614 -0.401526 0
M  V30 13 C -1.17498 -0.853542 -0.626561 0
M  V30 14 C -0.63911 0.405519 -0.552826 0
M  V30 15 C 0.782385 0.73245 -0.759621 0
M  V30 16 C 1.59187 0.855601 0.495617 0
M  V30 17 C 3.02723 1.20416 0.173156 0
M  V30 18 O 3.45473 2.34229 0.501263 0
M  V30 19 N 3.88712 0.309482 -0.474135 0
M  V30 20 C 5.24508 0.670547 -0.78002 0
M  V30 21 C 6.20238 -0.358598 -0.783372 0
M  V30 22 C 7.49366 -0.0634331 -1.10008 0
M  V30 23 C 7.90315 1.22682 -1.42243 0
M  V30 24 C 6.97022 2.23537 -1.42077 0
M  V30 25 C 5.64924 1.93004 -1.0967 0
M  V30 26 S 9.57682 1.54448 -1.8204 0
M  V30 27 F 9.8132 1.37335 -3.46823 0
M  V30 28 O 9.95994 2.89366 -1.3435 0
M  V30 29 O 10.4002 0.522386 -1.07161 0
M  V30 30 C 1.46694 -0.228497 1.46361 0
M  V30 31 C 1.12444 0.0770025 2.79242 0
M  V30 32 C 0.985381 -0.846495 3.77979 0
M  V30 33 C 1.18073 -2.16453 3.51109 0
M  V30 34 C 1.51863 -2.53134 2.22679 0
M  V30 35 C 1.65626 -1.5709 1.22836 0
M  V30 36 C -1.54214 1.43053 -0.233232 0
M  V30 37 C -2.8791 1.19186 -0.00697768 0
M  V30 38 H -4.70562 1.17904 -2.14731 0
M  V30 39 H -6.52725 1.18643 -2.22539 0
M  V30 40 H -5.73359 1.80808 -0.751173 0
M  V30 41 H -6.11357 -1.44987 -2.75398 0
M  V30 42 H -5.11616 -2.30827 -1.53663 0
M  V30 43 H -4.4022 -1.00119 -2.61965 0
M  V30 44 H -9.37533 -1.70031 0.181234 0
M  V30 45 H -9.18565 -0.895266 1.75854 0
M  V30 46 H -3.82745 0.231375 2.86734 0
M  V30 47 H -3.81227 -1.54211 2.95104 0
M  V30 48 H -2.87405 -2.16439 -0.480329 0
M  V30 49 H -0.527952 -1.70096 -0.891025 0
M  V30 50 H 0.850224 1.67205 -1.36519 0
M  V30 51 H 1.18252 -0.0852843 -1.43102 0
M  V30 52 H 1.19332 1.79889 0.99441 0
M  V30 53 H 3.58159 -0.657379 -0.77094 0
M  V30 54 H 5.87768 -1.34925 -0.53373 0
M  V30 55 H 8.26843 -0.828817 -1.11527 0
M  V30 56 H 7.23851 3.24726 -1.66288 0
M  V30 57 H 4.94503 2.7713 -1.13606 0
M  V30 58 H 0.965954 1.12083 3.02507 0
M  V30 59 H 0.716825 -0.496835 4.77463 0
M  V30 60 H 1.06251 -2.87033 4.31798 0
M  V30 61 H 1.67305 -3.58116 2.01761 0
M  V30 62 H 1.90849 -1.88629 0.228836 0
M  V30 63 H -1.19995 2.46208 -0.154721 0
M  V30 64 H -3.5524 2.0055 0.238268 0
M  V30 END ATOM
M  V30 BEGIN BOND
M  V30 1 1 1 2
M  V30 2 1 2 3
M  V30 3 1 2 4
M  V30 4 2 4 5
M  V30 5 1 5 6
M  V30 6 1 5 7
M  V30 7 2 7 8
M  V30 8 1 8 9
M  V30 9 1 8 10
M  V30 10 1 10 11
M  V30 11 2 11 12
M  V30 12 1 12 13
M  V30 13 2 13 14
M  V30 14 1 14 15
M  V30 15 1 15 16
M  V30 16 1 16 17
M  V30 17 2 17 18
M  V30 18 1 17 19
M  V30 19 1 19 20
M  V30 20 2 20 21
M  V30 21 1 21 22
M  V30 22 2 22 23
M  V30 23 1 23 24
M  V30 24 2 24 25
M  V30 25 1 23 26
M  V30 26 1 26 27
M  V30 27 2 26 28
M  V30 28 2 26 29
M  V30 29 1 16 30
M  V30 30 2 30 31
M  V30 31 1 31 32
M  V30 32 2 32 33
M  V30 33 1 33 34
M  V30 34 2 34 35
M  V30 35 1 14 36
M  V30 36 2 36 37
M  V30 37 1 10 2
M  V30 38 1 37 11
M  V30 39 1 25 20
M  V30 40 1 35 30
M  V30 41 1 1 38
M  V30 42 1 1 39
M  V30 43 1 1 40
M  V30 44 1 3 41
M  V30 45 1 3 42
M  V30 46 1 3 43
M  V30 47 1 6 44
M  V30 48 1 6 45
M  V30 49 1 9 46
M  V30 50 1 9 47
M  V30 51 1 12 48
M  V30 52 1 13 49
M  V30 53 1 15 50
M  V30 54 1 15 51
M  V30 55 1 16 52
M  V30 56 1 19 53
M  V30 57 1 21 54
M  V30 58 1 22 55
M  V30 59 1 24 56
M  V30 60 1 25 57
M  V30 61 1 31 58
M  V30 62 1 32 59
M  V30 63 1 33 60
M  V30 64 1 34 61
M  V30 65 1 35 62
M  V30 66 1 36 63
M  V30 67 1 37 64
M  V30 END BOND
M  V30 END CTAB
M  END
