
     RDKit          3D

  0  0  0  0  0  0  0  0  0  0999 V3000
M  V30 BEGIN CTAB
M  V30 COUNTS 19 19 0 0 0
M  V30 BEGIN ATOM
M  V30 1 N 3.02921 0.698054 0.0526805 0
M  V30 2 C 1.67641 0.232111 -0.0261182 0
M  V30 3 C 0.597724 1.01428 0.31295 0
M  V30 4 C -0.665101 0.507822 0.214474 0
M  V30 5 C -0.866214 -0.773874 -0.219613 0
M  V30 6 C 0.208111 -1.58798 -0.569539 0
M  V30 7 C 1.48038 -1.06562 -0.4661 0
M  V30 8 Cl 2.86557 -2.06058 -0.898252 0
M  V30 9 N -2.18698 -1.2739 -0.312242 0
M  V30 10 C -1.84391 1.33646 0.57585 0
M  V30 11 F -2.6805 1.47365 -0.52539 0
M  V30 12 F -2.58273 0.677493 1.5493 0
M  V30 13 F -1.49722 2.57063 1.04759 0
M  V30 14 H 3.72664 0.410874 -0.651914 0
M  V30 15 H 3.26629 1.32515 0.837179 0
M  V30 16 H 0.768934 2.044 0.661084 0
M  V30 17 H 0.0193808 -2.61238 -0.914803 0
M  V30 18 H -2.76325 -1.09146 -1.15116 0
M  V30 19 H -2.55275 -1.82473 0.484034 0
M  V30 END ATOM
M  V30 BEGIN BOND
M  V30 1 1 1 2
M  V30 2 2 2 3
M  V30 3 1 3 4
M  V30 4 2 4 5
M  V30 5 1 5 6
M  V30 6 2 6 7
M  V30 7 1 7 8
M  V30 8 1 5 9
M  V30 9 1 4 10
M  V30 10 1 10 11
M  V30 11 1 10 12
M  V30 12 1 10 13
M  V30 13 1 7 2
M  V30 14 1 1 14
M  V30 15 1 1 15
M  V30 16 1 3 16
M  V30 17 1 6 17
M  V30 18 1 9 18
M  V30 19 1 9 19
M  V30 END BOND
M  V30 END CTAB
M  END
