
     RDKit          3D

  0  0  0  0  0  0  0  0  0  0999 V3000
M  V30 BEGIN CTAB
M  V30 COUNTS 27 28 0 0 0
M  V30 BEGIN ATOM
M  V30 1 N 0.493076 3.32088 0.20216 0
M  V30 2 C 0.416703 1.90138 0.0723123 0
M  V30 3 C -0.80029 1.31152 0.277248 0
M  V30 4 N -1.97475 2.07128 0.612188 0
M  V30 5 C -0.908689 -0.0598894 0.159382 0
M  V30 6 C -2.13351 -0.673158 0.36376 0
M  V30 7 O -3.20584 0.113764 0.679183 0
M  V30 8 C -2.24172 -2.04707 0.245748 0
M  V30 9 C -1.1643 -2.83377 -0.070766 0
M  V30 10 C 0.0536784 -2.23026 -0.274661 0
M  V30 11 C 0.161742 -0.846569 -0.155623 0
M  V30 12 C 1.40417 -0.245095 -0.364936 0
M  V30 13 C 1.50176 1.12551 -0.244774 0
M  V30 14 S 2.80155 -1.19416 -0.768869 0
M  V30 15 O 4.1177 -0.137424 -0.94507 0
M  V30 16 O 3.19075 -2.17379 0.276525 0
M  V30 17 O 2.56934 -1.84985 -2.12221 0
M  V30 18 H 0.132232 3.90611 -0.58438 0
M  V30 19 H 0.90628 3.70442 1.07782 0
M  V30 20 H -2.62344 2.36878 -0.140547 0
M  V30 21 H -2.10897 2.28424 1.61906 0
M  V30 22 H -4.13869 -0.17195 0.853585 0
M  V30 23 H -3.19046 -2.53877 0.402336 0
M  V30 24 H -1.21881 -3.90517 -0.169316 0
M  V30 25 H 0.950373 -2.76802 -0.525846 0
M  V30 26 H 2.46385 1.6004 -0.40589 0
M  V30 27 H 4.54627 -0.0333334 -0.0684075 0
M  V30 END ATOM
M  V30 BEGIN BOND
M  V30 1 1 1 2
M  V30 2 2 2 3
M  V30 3 1 3 4
M  V30 4 1 3 5
M  V30 5 2 5 6
M  V30 6 1 6 7
M  V30 7 1 6 8
M  V30 8 2 8 9
M  V30 9 1 9 10
M  V30 10 2 10 11
M  V30 11 1 11 12
M  V30 12 2 12 13
M  V30 13 1 12 14
M  V30 14 1 14 15
M  V30 15 2 14 16
M  V30 16 2 14 17
M  V30 17 1 13 2
M  V30 18 1 11 5
M  V30 19 1 1 18
M  V30 20 1 1 19
M  V30 21 1 4 20
M  V30 22 1 4 21
M  V30 23 1 7 22
M  V30 24 1 8 23
M  V30 25 1 9 24
M  V30 26 1 10 25
M  V30 27 1 13 26
M  V30 28 1 15 27
M  V30 END BOND
M  V30 END CTAB
M  END
