
     RDKit          3D

  0  0  0  0  0  0  0  0  0  0999 V3000
M  V30 BEGIN CTAB
M  V30 COUNTS 25 26 0 0 0
M  V30 BEGIN ATOM
M  V30 1 C -2.84732 2.45935 0.326884 0
M  V30 2 C -1.71347 1.50997 0.203588 0
M  V30 3 C -1.98249 0.185947 0.0286154 0
M  V30 4 C -0.989495 -0.803751 -0.100242 0
M  V30 5 C -1.32211 -2.21158 -0.286904 0
M  V30 6 C 0.300087 -0.284177 -0.0296305 0
M  V30 7 C 0.549291 1.06923 0.149174 0
M  V30 8 N -0.464769 1.92899 0.26085 0
M  V30 9 N 1.83657 1.47646 0.204955 0
M  V30 10 C 2.89681 0.673413 0.100852 0
M  V30 11 N 2.66831 -0.629319 -0.0712069 0
M  V30 12 C 1.38572 -1.10766 -0.136349 0
M  V30 13 N 1.17279 -2.48941 -0.318083 0
M  V30 14 N 4.24312 1.18462 0.170411 0
M  V30 15 H -3.03464 2.74534 1.37663 0
M  V30 16 H -3.80083 2.02006 -0.0842438 0
M  V30 17 H -2.64939 3.34913 -0.327744 0
M  V30 18 H -3.02389 -0.139229 -0.0159054 0
M  V30 19 H -1.18083 -2.88894 0.564553 0
M  V30 20 H -1.17216 -2.63393 -1.29962 0
M  V30 21 H -2.4758 -2.21514 -0.299882 0
M  V30 22 H 1.10724 -2.88654 -1.2766 0
M  V30 23 H 1.10227 -3.09912 0.507301 0
M  V30 24 H 5.01786 0.651732 0.614589 0
M  V30 25 H 4.37713 2.13455 -0.26199 0
M  V30 END ATOM
M  V30 BEGIN BOND
M  V30 1 1 1 2
M  V30 2 2 2 3
M  V30 3 1 3 4
M  V30 4 1 4 5
M  V30 5 2 4 6
M  V30 6 1 6 7
M  V30 7 2 7 8
M  V30 8 1 7 9
M  V30 9 2 9 10
M  V30 10 1 10 11
M  V30 11 2 11 12
M  V30 12 1 12 13
M  V30 13 1 10 14
M  V30 14 1 8 2
M  V30 15 1 12 6
M  V30 16 1 1 15
M  V30 17 1 1 16
M  V30 18 1 1 17
M  V30 19 1 3 18
M  V30 20 1 5 19
M  V30 21 1 5 20
M  V30 22 1 5 21
M  V30 23 1 13 22
M  V30 24 1 13 23
M  V30 25 1 14 24
M  V30 26 1 14 25
M  V30 END BOND
M  V30 END CTAB
M  END
