
     RDKit          3D

  0  0  0  0  0  0  0  0  0  0999 V3000
M  V30 BEGIN CTAB
M  V30 COUNTS 27 26 0 0 0
M  V30 BEGIN ATOM
M  V30 1 N 3.59744 0.140399 -0.22723 0
M  V30 2 C 2.42707 -0.62982 0.107315 0
M  V30 3 C 1.14746 0.182838 -0.0365076 0
M  V30 4 C 0.0100249 -0.71908 0.335851 0
M  V30 5 C -1.33949 -0.0665076 0.247144 0
M  V30 6 C -1.48705 1.12496 1.13826 0
M  V30 7 C -1.69503 0.344158 -1.15734 0
M  V30 8 C -2.36656 -1.09993 0.688445 0
M  V30 9 N 1.1015 0.619218 -1.41141 0
M  V30 10 H 4.03831 0.48169 0.635192 0
M  V30 11 H 3.43882 0.845104 -0.960297 0
M  V30 12 H 2.52955 -1.03545 1.13067 0
M  V30 13 H 2.32477 -1.52575 -0.565646 0
M  V30 14 H 1.23141 1.02459 0.664282 0
M  V30 15 H 0.159824 -1.02481 1.39089 0
M  V30 16 H 0.0103452 -1.63038 -0.273388 0
M  V30 17 H -0.880731 1.07145 2.06606 0
M  V30 18 H -2.57113 1.26997 1.3807 0
M  V30 19 H -1.19104 2.02713 0.563065 0
M  V30 20 H -2.80979 0.285421 -1.2454 0
M  V30 21 H -1.29788 -0.413277 -1.85345 0
M  V30 22 H -1.42261 1.37716 -1.40055 0
M  V30 23 H -3.193 -0.6337 1.27131 0
M  V30 24 H -2.76169 -1.64003 -0.205421 0
M  V30 25 H -1.90723 -1.86103 1.35996 0
M  V30 26 H 1.51111 1.56666 -1.55268 0
M  V30 27 H 1.3956 -0.0809982 -2.08982 0
M  V30 END ATOM
M  V30 BEGIN BOND
M  V30 1 1 1 2
M  V30 2 1 2 3
M  V30 3 1 3 4
M  V30 4 1 4 5
M  V30 5 1 5 6
M  V30 6 1 5 7
M  V30 7 1 5 8
M  V30 8 1 3 9
M  V30 9 1 1 10
M  V30 10 1 1 11
M  V30 11 1 2 12
M  V30 12 1 2 13
M  V30 13 1 3 14
M  V30 14 1 4 15
M  V30 15 1 4 16
M  V30 16 1 6 17
M  V30 17 1 6 18
M  V30 18 1 6 19
M  V30 19 1 7 20
M  V30 20 1 7 21
M  V30 21 1 7 22
M  V30 22 1 8 23
M  V30 23 1 8 24
M  V30 24 1 8 25
M  V30 25 1 9 26
M  V30 26 1 9 27
M  V30 END BOND
M  V30 END CTAB
M  END
