
     RDKit          3D

  0  0  0  0  0  0  0  0  0  0999 V3000
M  V30 BEGIN CTAB
M  V30 COUNTS 37 38 0 0 0
M  V30 BEGIN ATOM
M  V30 1 C -3.97715 1.69644 0.597476 0
M  V30 2 C -2.83163 0.925486 -0.0590722 0
M  V30 3 C -1.91948 0.407929 0.99857 0
M  V30 4 N -0.7913 -0.34163 0.527245 0
M  V30 5 C 0.343663 0.337724 0.239725 0
M  V30 6 N 0.435983 1.75011 0.388049 0
M  V30 7 C 1.40902 -0.424806 -0.207305 0
M  V30 8 C 2.64754 0.337955 -0.518382 0
M  V30 9 C 2.84405 0.827675 -1.78163 0
M  V30 10 S 4.37106 1.5976 -1.60387 0
M  V30 11 C 4.64516 1.2453 0.0429566 0
M  V30 12 N 3.55933 0.559988 0.370336 0
M  V30 13 N 5.77407 1.61127 0.843222 0
M  V30 14 C 1.33554 -1.78448 -0.355132 0
M  V30 15 O 2.34469 -2.42076 -0.767783 0
M  V30 16 N 0.172192 -2.36279 -0.0453914 0
M  V30 17 C -0.887399 -1.66905 0.391126 0
M  V30 18 O -1.9709 -2.29629 0.669143 0
M  V30 19 C 0.0766581 -3.81504 -0.197672 0
M  V30 20 C -3.39159 -0.0916791 -0.994568 0
M  V30 21 H -3.51924 2.50956 1.18943 0
M  V30 22 H -4.57889 1.03563 1.25289 0
M  V30 23 H -4.61542 2.16116 -0.160577 0
M  V30 24 H -2.31952 1.70051 -0.704046 0
M  V30 25 H -2.47567 -0.233923 1.71209 0
M  V30 26 H -1.59349 1.29615 1.60213 0
M  V30 27 H 0.81236 2.30869 -0.404294 0
M  V30 28 H 0.154658 2.28189 1.23534 0
M  V30 29 H 2.18177 0.737216 -2.66035 0
M  V30 30 H 6.20797 0.971845 1.5164 0
M  V30 31 H 6.13724 2.57893 0.702342 0
M  V30 32 H 0.398042 -4.24444 0.766815 0
M  V30 33 H -0.955462 -4.08844 -0.467587 0
M  V30 34 H 0.758406 -4.17174 -0.993748 0
M  V30 35 H -4.13191 -0.775777 -0.500777 0
M  V30 36 H -4.02498 0.445087 -1.76397 0
M  V30 37 H -2.62536 -0.60332 -1.57851 0
M  V30 END ATOM
M  V30 BEGIN BOND
M  V30 1 1 1 2
M  V30 2 1 2 3
M  V30 3 1 3 4
M  V30 4 1 4 5
M  V30 5 1 5 6
M  V30 6 2 5 7
M  V30 7 1 7 8
M  V30 8 2 8 9
M  V30 9 1 9 10
M  V30 10 1 10 11
M  V30 11 2 11 12
M  V30 12 1 11 13
M  V30 13 1 7 14
M  V30 14 2 14 15
M  V30 15 1 14 16
M  V30 16 1 16 17
M  V30 17 2 17 18
M  V30 18 1 16 19
M  V30 19 1 2 20
M  V30 20 1 17 4
M  V30 21 1 12 8
M  V30 22 1 1 21
M  V30 23 1 1 22
M  V30 24 1 1 23
M  V30 25 1 2 24
M  V30 26 1 3 25
M  V30 27 1 3 26
M  V30 28 1 6 27
M  V30 29 1 6 28
M  V30 30 1 9 29
M  V30 31 1 13 30
M  V30 32 1 13 31
M  V30 33 1 19 32
M  V30 34 1 19 33
M  V30 35 1 19 34
M  V30 36 1 20 35
M  V30 37 1 20 36
M  V30 38 1 20 37
M  V30 END BOND
M  V30 END CTAB
M  END
