
     RDKit          3D

  0  0  0  0  0  0  0  0  0  0999 V3000
M  V30 BEGIN CTAB
M  V30 COUNTS 40 43 0 0 0
M  V30 BEGIN ATOM
M  V30 1 N 4.73552 -2.6822 0.882691 0
M  V30 2 N 3.96425 -2.30487 -0.210714 0
M  V30 3 C 2.67213 -1.68466 -0.110378 0
M  V30 4 N 1.59369 -2.45113 0.0880999 0
M  V30 5 C 0.327253 -1.93574 0.176402 0
M  V30 6 N -0.663684 -2.92776 0.392544 0
M  V30 7 C 0.126051 -0.596401 0.0608513 0
M  V30 8 C 1.23428 0.205132 -0.143464 0
M  V30 9 N 2.46914 -0.36445 -0.222064 0
M  V30 10 C 1.06733 1.64247 -0.25724 0
M  V30 11 C 2.17947 2.45258 -0.481786 0
M  V30 12 C 2.05011 3.82952 -0.609945 0
M  V30 13 C 0.792193 4.3828 -0.509557 0
M  V30 14 C -0.299239 3.5784 -0.289515 0
M  V30 15 C -0.164997 2.19525 -0.160894 0
M  V30 16 C -1.36216 1.42927 0.0807568 0
M  V30 17 C -1.25301 -0.0593189 0.122384 0
M  V30 18 C -2.03237 -0.515117 1.33484 0
M  V30 19 C -3.32189 -1.11197 0.867976 0
M  V30 20 C -3.39228 -0.974292 -0.615571 0
M  V30 21 C -2.04588 -0.557636 -1.10152 0
M  V30 22 H 5.36411 -3.46154 0.555124 0
M  V30 23 H 5.2481 -1.86837 1.25263 0
M  V30 24 H 4.29763 -2.46056 -1.21107 0
M  V30 25 H -1.16215 -3.31431 -0.432569 0
M  V30 26 H -0.923325 -3.29927 1.32769 0
M  V30 27 H 3.16261 1.98742 -0.556116 0
M  V30 28 H 2.95019 4.43725 -0.786651 0
M  V30 29 H 0.719818 5.47269 -0.616451 0
M  V30 30 H -1.26811 4.05249 -0.216991 0
M  V30 31 H -2.15426 1.76907 -0.670013 0
M  V30 32 H -1.81356 1.82338 1.05527 0
M  V30 33 H -2.33882 0.37595 1.97563 0
M  V30 34 H -1.45578 -1.12302 2.047 0
M  V30 35 H -4.23148 -0.573841 1.27592 0
M  V30 36 H -3.46476 -2.15868 1.23354 0
M  V30 37 H -3.73623 -1.93959 -1.08089 0
M  V30 38 H -4.19133 -0.242771 -0.943356 0
M  V30 39 H -2.20214 0.278969 -1.83788 0
M  V30 40 H -1.47641 -1.30515 -1.66471 0
M  V30 END ATOM
M  V30 BEGIN BOND
M  V30 1 1 1 2
M  V30 2 1 2 3
M  V30 3 2 3 4
M  V30 4 1 4 5
M  V30 5 1 5 6
M  V30 6 2 5 7
M  V30 7 1 7 8
M  V30 8 2 8 9
M  V30 9 1 8 10
M  V30 10 2 10 11
M  V30 11 1 11 12
M  V30 12 2 12 13
M  V30 13 1 13 14
M  V30 14 2 14 15
M  V30 15 1 15 16
M  V30 16 1 16 17
M  V30 17 1 17 18
M  V30 18 1 18 19
M  V30 19 1 19 20
M  V30 20 1 20 21
M  V30 21 1 9 3
M  V30 22 1 15 10
M  V30 23 1 21 17
M  V30 24 1 17 7
M  V30 25 1 1 22
M  V30 26 1 1 23
M  V30 27 1 2 24
M  V30 28 1 6 25
M  V30 29 1 6 26
M  V30 30 1 11 27
M  V30 31 1 12 28
M  V30 32 1 13 29
M  V30 33 1 14 30
M  V30 34 1 16 31
M  V30 35 1 16 32
M  V30 36 1 18 33
M  V30 37 1 18 34
M  V30 38 1 19 35
M  V30 39 1 19 36
M  V30 40 1 20 37
M  V30 41 1 20 38
M  V30 42 1 21 39
M  V30 43 1 21 40
M  V30 END BOND
M  V30 END CTAB
M  END
