
     RDKit          3D

  0  0  0  0  0  0  0  0  0  0999 V3000
M  V30 BEGIN CTAB
M  V30 COUNTS 23 23 0 0 0
M  V30 BEGIN ATOM
M  V30 1 C -0.260263 -0.781111 -1.69399 0
M  V30 2 C -0.29346 -0.258192 -0.282695 0
M  V30 3 N -0.604338 -1.31605 0.6663 0
M  V30 4 C -1.81947 -0.993922 1.34244 0
M  V30 5 O -2.37191 -1.70867 2.23592 0
M  V30 6 N -2.23995 0.241034 0.811823 0
M  V30 7 C -1.43175 0.682313 -0.0840169 0
M  V30 8 N -1.64358 1.91985 -0.770144 0
M  V30 9 C 0.961681 0.469683 0.0967693 0
M  V30 10 N 0.788992 0.918193 1.48283 0
M  V30 11 C 2.18638 -0.404518 0.0794037 0
M  V30 12 H -1.2453 -1.27381 -1.87496 0
M  V30 13 H -0.182546 0.0453978 -2.39725 0
M  V30 14 H 0.517943 -1.55139 -1.77585 0
M  V30 15 H -0.0692382 -2.18969 0.866549 0
M  V30 16 H -2.25599 1.91408 -1.61331 0
M  V30 17 H -1.21586 2.81832 -0.465937 0
M  V30 18 H 1.11149 1.30104 -0.597182 0
M  V30 19 H 1.38091 1.75112 1.59518 0
M  V30 20 H 1.05959 0.103647 2.07476 0
M  V30 21 H 2.32989 -0.938372 -0.85937 0
M  V30 22 H 2.22747 -1.04194 0.984162 0
M  V30 23 H 3.06929 0.292997 0.178557 0
M  V30 END ATOM
M  V30 BEGIN BOND
M  V30 1 1 1 2
M  V30 2 1 2 3
M  V30 3 1 3 4
M  V30 4 2 4 5
M  V30 5 1 4 6
M  V30 6 2 6 7
M  V30 7 1 7 8
M  V30 8 1 2 9
M  V30 9 1 9 10
M  V30 10 1 9 11
M  V30 11 1 7 2
M  V30 12 1 1 12
M  V30 13 1 1 13
M  V30 14 1 1 14
M  V30 15 1 3 15
M  V30 16 1 8 16
M  V30 17 1 8 17
M  V30 18 1 9 18
M  V30 19 1 10 19
M  V30 20 1 10 20
M  V30 21 1 11 21
M  V30 22 1 11 22
M  V30 23 1 11 23
M  V30 END BOND
M  V30 END CTAB
M  END
