
     RDKit          3D

  0  0  0  0  0  0  0  0  0  0999 V3000
M  V30 BEGIN CTAB
M  V30 COUNTS 42 43 0 0 0
M  V30 BEGIN ATOM
M  V30 1 C -6.10179 1.73548 -0.936922 0
M  V30 2 C -6.06876 0.442393 -0.695032 0
M  V30 3 C -5.32331 -0.574415 -1.45863 0
M  V30 4 O -4.4152 -1.26234 -0.73726 0
M  V30 5 C -3.27997 -0.979866 -0.0366457 0
M  V30 6 C -2.71128 0.263768 0.10178 0
M  V30 7 C -1.54971 0.485922 0.834355 0
M  V30 8 C -0.893637 -0.541821 1.47131 0
M  V30 9 C -1.45465 -1.79248 1.33892 0
M  V30 10 C -2.59755 -2.02844 0.621665 0
M  V30 11 C 0.33855 -0.292738 2.25239 0
M  V30 12 N 1.54637 -0.234946 1.48489 0
M  V30 13 C 1.57842 0.767985 0.485532 0
M  V30 14 C 2.90359 0.760318 -0.186547 0
M  V30 15 N 4.02208 0.280053 0.389124 0
M  V30 16 C 5.22061 0.267361 -0.204849 0
M  V30 17 N 6.35175 -0.25016 0.454111 0
M  V30 18 N 5.29819 0.765495 -1.44694 0
M  V30 19 C 4.21594 1.2671 -2.09296 0
M  V30 20 N 3.04673 1.249 -1.44 0
M  V30 21 N 4.31181 1.79052 -3.40556 0
M  V30 22 C 2.04596 -1.5202 1.08478 0
M  V30 23 H -5.53519 2.1169 -1.77233 0
M  V30 24 H -6.68771 2.38357 -0.303361 0
M  V30 25 H -6.64757 0.0537311 0.158165 0
M  V30 26 H -4.95352 -0.161012 -2.43423 0
M  V30 27 H -6.11493 -1.31895 -1.80043 0
M  V30 28 H -3.19007 1.10763 -0.394769 0
M  V30 29 H -1.13535 1.49089 0.916536 0
M  V30 30 H -0.959498 -2.61919 1.83354 0
M  V30 31 H -3.02337 -3.02546 0.530265 0
M  V30 32 H 0.492044 -1.07599 3.04246 0
M  V30 33 H 0.27619 0.670378 2.83446 0
M  V30 34 H 0.847879 0.477016 -0.324431 0
M  V30 35 H 1.3536 1.74793 0.908379 0
M  V30 36 H 6.69852 -1.22113 0.367688 0
M  V30 37 H 6.89547 0.388678 1.08603 0
M  V30 38 H 3.48003 1.78176 -4.02147 0
M  V30 39 H 5.19751 2.18319 -3.76503 0
M  V30 40 H 1.32874 -2.35275 1.24544 0
M  V30 41 H 2.98366 -1.72874 1.60144 0
M  V30 42 H 2.20943 -1.49643 -0.0112257 0
M  V30 END ATOM
M  V30 BEGIN BOND
M  V30 1 2 1 2 CFG=2
M  V30 2 1 2 3
M  V30 3 1 3 4
M  V30 4 1 4 5
M  V30 5 2 5 6
M  V30 6 1 6 7
M  V30 7 2 7 8
M  V30 8 1 8 9
M  V30 9 2 9 10
M  V30 10 1 8 11
M  V30 11 1 11 12
M  V30 12 1 12 13
M  V30 13 1 13 14
M  V30 14 2 14 15
M  V30 15 1 15 16
M  V30 16 1 16 17
M  V30 17 2 16 18
M  V30 18 1 18 19
M  V30 19 2 19 20
M  V30 20 1 19 21
M  V30 21 1 12 22
M  V30 22 1 10 5
M  V30 23 1 20 14
M  V30 24 1 1 23
M  V30 25 1 1 24
M  V30 26 1 2 25
M  V30 27 1 3 26
M  V30 28 1 3 27
M  V30 29 1 6 28
M  V30 30 1 7 29
M  V30 31 1 9 30
M  V30 32 1 10 31
M  V30 33 1 11 32
M  V30 34 1 11 33
M  V30 35 1 13 34
M  V30 36 1 13 35
M  V30 37 1 17 36
M  V30 38 1 17 37
M  V30 39 1 21 38
M  V30 40 1 21 39
M  V30 41 1 22 40
M  V30 42 1 22 41
M  V30 43 1 22 42
M  V30 END BOND
M  V30 END CTAB
M  END
