
     RDKit          3D

  0  0  0  0  0  0  0  0  0  0999 V3000
M  V30 BEGIN CTAB
M  V30 COUNTS 34 35 0 0 0
M  V30 BEGIN ATOM
M  V30 1 N 5.18491 -1.06901 -0.469649 0
M  V30 2 C 3.79065 -0.731383 -0.410506 0
M  V30 3 C 3.47756 0.528867 0.039672 0
M  V30 4 C 2.13552 0.880323 0.106515 0
M  V30 5 C 1.15558 -0.00831253 -0.267699 0
M  V30 6 C 1.54091 -1.26381 -0.71271 0
M  V30 7 N 2.83769 -1.60279 -0.776634 0
M  V30 8 C -0.262739 0.344785 -0.232149 0 CFG=2
M  V30 9 C -0.357736 1.84179 -0.0377977 0
M  V30 10 C -1.65335 2.43397 -0.560251 0
M  V30 11 O -2.32066 1.46588 -1.28323 0
M  V30 12 C -3.06007 0.701332 -0.391059 0
M  V30 13 C -2.31324 0.497001 0.920215 0
M  V30 14 N -1.08255 -0.233273 0.721303 0
M  V30 15 S -1.34247 -1.84734 0.951595 0
M  V30 16 O -2.40302 -2.00243 2.05744 0
M  V30 17 O -0.19828 -2.62634 1.58528 0
M  V30 18 N -2.04871 -2.70099 -0.374887 0
M  V30 19 H 5.52524 -1.87471 0.0693637 0
M  V30 20 H 5.85363 -0.518348 -1.0433 0
M  V30 21 H 4.23424 1.24149 0.337909 0
M  V30 22 H 1.93314 1.89626 0.485764 0
M  V30 23 H 0.832187 -2.0141 -1.02885 0
M  V30 24 H -0.632078 0.141307 -1.30088 0
M  V30 25 H -0.144618 2.13691 1.01127 0
M  V30 26 H 0.422363 2.39318 -0.615857 0
M  V30 27 H -2.25992 2.93172 0.222221 0
M  V30 28 H -1.47306 3.26727 -1.30564 0
M  V30 29 H -4.01735 1.17832 -0.144728 0
M  V30 30 H -3.22269 -0.283946 -0.83723 0
M  V30 31 H -2.2069 1.39973 1.5213 0
M  V30 32 H -3.04533 -0.128548 1.52828 0
M  V30 33 H -3.08259 -2.66061 -0.379046 0
M  V30 34 H -1.79623 -3.7142 -0.237982 0
M  V30 END ATOM
M  V30 BEGIN BOND
M  V30 1 1 1 2
M  V30 2 2 2 3
M  V30 3 1 3 4
M  V30 4 2 4 5
M  V30 5 1 5 6
M  V30 6 2 6 7
M  V30 7 1 5 8
M  V30 8 1 8 9
M  V30 9 1 9 10
M  V30 10 1 10 11
M  V30 11 1 11 12
M  V30 12 1 12 13
M  V30 13 1 13 14
M  V30 14 1 14 15
M  V30 15 2 15 16
M  V30 16 2 15 17
M  V30 17 1 15 18
M  V30 18 1 7 2
M  V30 19 1 14 8
M  V30 20 1 1 19
M  V30 21 1 1 20
M  V30 22 1 3 21
M  V30 23 1 4 22
M  V30 24 1 6 23
M  V30 25 1 8 24 CFG=3
M  V30 26 1 9 25
M  V30 27 1 9 26
M  V30 28 1 10 27
M  V30 29 1 10 28
M  V30 30 1 12 29
M  V30 31 1 12 30
M  V30 32 1 13 31
M  V30 33 1 13 32
M  V30 34 1 18 33
M  V30 35 1 18 34
M  V30 END BOND
M  V30 END CTAB
M  END
