
     RDKit          3D

  0  0  0  0  0  0  0  0  0  0999 V3000
M  V30 BEGIN CTAB
M  V30 COUNTS 36 38 0 0 0
M  V30 BEGIN ATOM
M  V30 1 N 0.368665 2.44419 0.500846 0
M  V30 2 C -0.133388 1.24456 -0.0873054 0
M  V30 3 N -1.44338 0.921434 0.152448 0
M  V30 4 C -2.06653 -0.142004 -0.3352 0
M  V30 5 N -1.33805 -0.950034 -1.12303 0
M  V30 6 C -0.0533724 -0.714573 -1.41222 0
M  V30 7 C 0.603359 0.428248 -0.880966 0
M  V30 8 C 2.00793 0.596512 -1.27202 0
M  V30 9 C 3.06513 0.352447 -0.292876 0
M  V30 10 C 3.40672 -0.980742 -0.0205532 0
M  V30 11 C 4.33584 -1.26823 0.953099 0
M  V30 12 C 4.97375 -0.305233 1.70187 0
M  V30 13 C 4.64909 1.00604 1.44264 0
M  V30 14 C 3.71001 1.31916 0.457533 0
M  V30 15 F 3.54571 2.65434 0.221669 0
M  V30 16 N 0.593451 -1.61932 -2.28635 0
M  V30 17 C -3.47849 -0.434628 -0.0379692 0
M  V30 18 C -4.18366 0.415588 0.772129 0
M  V30 19 C -5.5216 0.153169 1.06501 0
M  V30 20 C -6.14726 -0.962846 0.542685 0
M  V30 21 C -5.4085 -1.78821 -0.262718 0
M  V30 22 N -4.09888 -1.51368 -0.537406 0
M  V30 23 H 0.435056 2.59754 1.52415 0
M  V30 24 H 0.685828 3.20696 -0.127641 0
M  V30 25 H 2.13536 1.68794 -1.60241 0
M  V30 26 H 2.22421 0.0490701 -2.23871 0
M  V30 27 H 2.92777 -1.74953 -0.593579 0
M  V30 28 H 4.56138 -2.33057 1.11822 0
M  V30 29 H 5.69654 -0.55599 2.45996 0
M  V30 30 H 5.10941 1.81173 1.98978 0
M  V30 31 H 0.791743 -2.58043 -1.97315 0
M  V30 32 H 0.865576 -1.31821 -3.23321 0
M  V30 33 H -3.75025 1.29533 1.20506 0
M  V30 34 H -6.03649 0.845747 1.70422 0
M  V30 35 H -7.17008 -1.14753 0.776832 0
M  V30 36 H -5.86262 -2.66823 -0.687394 0
M  V30 END ATOM
M  V30 BEGIN BOND
M  V30 1 1 1 2
M  V30 2 2 2 3
M  V30 3 1 3 4
M  V30 4 2 4 5
M  V30 5 1 5 6
M  V30 6 2 6 7
M  V30 7 1 7 8
M  V30 8 1 8 9
M  V30 9 2 9 10
M  V30 10 1 10 11
M  V30 11 2 11 12
M  V30 12 1 12 13
M  V30 13 2 13 14
M  V30 14 1 14 15
M  V30 15 1 6 16
M  V30 16 1 4 17
M  V30 17 2 17 18
M  V30 18 1 18 19
M  V30 19 2 19 20
M  V30 20 1 20 21
M  V30 21 2 21 22
M  V30 22 1 7 2
M  V30 23 1 14 9
M  V30 24 1 22 17
M  V30 25 1 1 23
M  V30 26 1 1 24
M  V30 27 1 8 25
M  V30 28 1 8 26
M  V30 29 1 10 27
M  V30 30 1 11 28
M  V30 31 1 12 29
M  V30 32 1 13 30
M  V30 33 1 16 31
M  V30 34 1 16 32
M  V30 35 1 18 33
M  V30 36 1 19 34
M  V30 37 1 20 35
M  V30 38 1 21 36
M  V30 END BOND
M  V30 END CTAB
M  END
