
     RDKit          3D

  0  0  0  0  0  0  0  0  0  0999 V3000
M  V30 BEGIN CTAB
M  V30 COUNTS 34 35 0 0 0
M  V30 BEGIN ATOM
M  V30 1 N 3.55624 -0.468855 -1.46613 0
M  V30 2 C 3.33478 -0.39212 -0.0372761 0
M  V30 3 C 2.11419 0.431637 0.286249 0
M  V30 4 C 0.903682 -0.152432 -0.342964 0 CFG=1
M  V30 5 C 0.657303 -1.53856 0.161255 0
M  V30 6 C -0.531578 -1.64826 1.11077 0
M  V30 7 C -1.72649 -1.16214 0.385305 0
M  V30 8 C -1.5378 0.0286003 -0.318884 0
M  V30 9 N -0.271445 0.677791 -0.316918 0
M  V30 10 S -0.21625 2.38521 -0.304581 0
M  V30 11 O -1.59174 3.02417 -0.167954 0
M  V30 12 O 0.525104 2.95287 -1.48112 0
M  V30 13 N 0.624194 2.95403 1.13176 0
M  V30 14 C -2.61594 0.532604 -1.0088 0
M  V30 15 C -3.84717 -0.0754922 -1.03294 0
M  V30 16 C -3.98433 -1.25194 -0.320646 0
M  V30 17 C -2.9405 -1.78942 0.379043 0
M  V30 18 H 3.51667 -1.41496 -1.84975 0
M  V30 19 H 4.29107 0.117579 -1.82802 0
M  V30 20 H 4.26813 0.141664 0.34154 0
M  V30 21 H 3.36453 -1.36205 0.460491 0
M  V30 22 H 2.34644 1.46152 -0.0600425 0
M  V30 23 H 2.04376 0.508044 1.39869 0
M  V30 24 H 1.15339 -0.254365 -1.45083 0
M  V30 25 H 1.51462 -1.92765 0.745527 0
M  V30 26 H 0.464806 -2.26698 -0.658464 0
M  V30 27 H -0.405324 -1.00508 2.00316 0
M  V30 28 H -0.611242 -2.71629 1.37671 0
M  V30 29 H -0.0415852 2.93892 1.93673 0
M  V30 30 H 0.832717 3.96408 0.954988 0
M  V30 31 H -2.50304 1.4579 -1.57518 0
M  V30 32 H -4.69744 0.327834 -1.58054 0
M  V30 33 H -4.93485 -1.76125 -0.313683 0
M  V30 34 H -3.0549 -2.7166 0.938137 0
M  V30 END ATOM
M  V30 BEGIN BOND
M  V30 1 1 1 2
M  V30 2 1 2 3
M  V30 3 1 3 4
M  V30 4 1 4 5
M  V30 5 1 5 6
M  V30 6 1 6 7
M  V30 7 2 7 8
M  V30 8 1 8 9
M  V30 9 1 9 10
M  V30 10 2 10 11
M  V30 11 2 10 12
M  V30 12 1 10 13
M  V30 13 1 8 14
M  V30 14 2 14 15
M  V30 15 1 15 16
M  V30 16 2 16 17
M  V30 17 1 9 4
M  V30 18 1 17 7
M  V30 19 1 1 18
M  V30 20 1 1 19
M  V30 21 1 2 20
M  V30 22 1 2 21
M  V30 23 1 3 22
M  V30 24 1 3 23
M  V30 25 1 4 24 CFG=3
M  V30 26 1 5 25
M  V30 27 1 5 26
M  V30 28 1 6 27
M  V30 29 1 6 28
M  V30 30 1 13 29
M  V30 31 1 13 30
M  V30 32 1 14 31
M  V30 33 1 15 32
M  V30 34 1 16 33
M  V30 35 1 17 34
M  V30 END BOND
M  V30 END CTAB
M  END
