
     RDKit          3D

  0  0  0  0  0  0  0  0  0  0999 V3000
M  V30 BEGIN CTAB
M  V30 COUNTS 43 42 0 0 0
M  V30 BEGIN ATOM
M  V30 1 N -6.35561 1.90345 0.413097 0
M  V30 2 C -4.988 2.07703 0.853967 0
M  V30 3 C -4.41434 0.689032 1.11505 0
M  V30 4 C -2.99044 0.759671 1.57979 0
M  V30 5 C -2.47529 -0.630722 1.83451 0
M  V30 6 C -2.50671 -1.51527 0.622043 0
M  V30 7 C -1.67768 -0.960387 -0.503512 0
M  V30 8 N -0.29038 -0.814953 -0.117783 0
M  V30 9 C 0.649374 -0.307168 -1.04059 0
M  V30 10 O 0.294813 0.0219514 -2.19886 0
M  V30 11 C 2.09138 -0.172711 -0.591381 0
M  V30 12 C 2.84025 0.370537 -1.72841 0
M  V30 13 C 4.26982 0.646679 -1.64736 0
M  V30 14 C 5.27068 -0.385725 -1.40091 0
M  V30 15 C 5.232 -1.17991 -0.151957 0
M  V30 16 N 5.30673 -0.403103 1.0654 0
M  V30 17 H -6.51772 0.992842 -0.0726487 0
M  V30 18 H -6.56275 2.66903 -0.270602 0
M  V30 19 H -4.35719 2.55837 0.0812408 0
M  V30 20 H -4.9829 2.67241 1.79005 0
M  V30 21 H -4.40914 0.184149 0.103816 0
M  V30 22 H -5.01476 0.120851 1.83748 0
M  V30 23 H -2.33258 1.23842 0.820723 0
M  V30 24 H -2.97819 1.34956 2.52036 0
M  V30 25 H -3.09865 -1.08287 2.652 0
M  V30 26 H -1.42491 -0.612224 2.23607 0
M  V30 27 H -3.55964 -1.62138 0.295416 0
M  V30 28 H -2.19272 -2.56366 0.882746 0
M  V30 29 H -2.05889 0.0297804 -0.785947 0
M  V30 30 H -1.712 -1.6812 -1.35424 0
M  V30 31 H -0.0185225 -1.09336 0.844593 0
M  V30 32 H 2.39344 -1.10247 -0.136159 0
M  V30 33 H 2.07007 0.626223 0.21091 0
M  V30 34 H 2.57605 -0.273994 -2.63333 0
M  V30 35 H 2.32741 1.34959 -2.01373 0
M  V30 36 H 4.48129 1.50487 -0.937628 0
M  V30 37 H 4.55299 1.12949 -2.64822 0
M  V30 38 H 6.28129 0.146865 -1.39258 0
M  V30 39 H 5.4127 -1.10932 -2.2471 0
M  V30 40 H 6.21366 -1.79218 -0.11355 0
M  V30 41 H 4.47682 -1.97804 -0.137883 0
M  V30 42 H 4.40977 -0.264169 1.53911 0
M  V30 43 H 5.76851 0.500736 0.826012 0
M  V30 END ATOM
M  V30 BEGIN BOND
M  V30 1 1 1 2
M  V30 2 1 2 3
M  V30 3 1 3 4
M  V30 4 1 4 5
M  V30 5 1 5 6
M  V30 6 1 6 7
M  V30 7 1 7 8
M  V30 8 1 8 9
M  V30 9 2 9 10
M  V30 10 1 9 11
M  V30 11 1 11 12
M  V30 12 1 12 13
M  V30 13 1 13 14
M  V30 14 1 14 15
M  V30 15 1 15 16
M  V30 16 1 1 17
M  V30 17 1 1 18
M  V30 18 1 2 19
M  V30 19 1 2 20
M  V30 20 1 3 21
M  V30 21 1 3 22
M  V30 22 1 4 23
M  V30 23 1 4 24
M  V30 24 1 5 25
M  V30 25 1 5 26
M  V30 26 1 6 27
M  V30 27 1 6 28
M  V30 28 1 7 29
M  V30 29 1 7 30
M  V30 30 1 8 31
M  V30 31 1 11 32
M  V30 32 1 11 33
M  V30 33 1 12 34
M  V30 34 1 12 35
M  V30 35 1 13 36
M  V30 36 1 13 37
M  V30 37 1 14 38
M  V30 38 1 14 39
M  V30 39 1 15 40
M  V30 40 1 15 41
M  V30 41 1 16 42
M  V30 42 1 16 43
M  V30 END BOND
M  V30 END CTAB
M  END
