
     RDKit          3D

  0  0  0  0  0  0  0  0  0  0999 V3000
M  V30 BEGIN CTAB
M  V30 COUNTS 26 26 0 0 0
M  V30 BEGIN ATOM
M  V30 1 C 3.18026 -2.16455 1.31369 0
M  V30 2 O 1.99291 -1.73237 0.711707 0
M  V30 3 C 1.67919 -0.386723 0.736866 0
M  V30 4 O 2.48668 0.391462 1.30663 0
M  V30 5 C 0.461719 0.149479 0.133534 0
M  V30 6 C -0.42893 -0.695287 -0.492956 0
M  V30 7 C -1.58737 -0.220138 -1.07233 0
M  V30 8 O -2.52428 -1.00523 -1.71587 0
M  V30 9 C -2.49629 -2.36931 -1.9043 0
M  V30 10 F -3.62441 -2.9759 -1.3766 0
M  V30 11 F -2.47004 -2.66712 -3.26273 0
M  V30 12 C -1.86639 1.14469 -1.02481 0
M  V30 13 C -0.96414 1.95138 -0.397501 0
M  V30 14 C 0.204984 1.50845 0.192701 0
M  V30 15 N 1.09256 2.41943 0.827412 0
M  V30 16 N -1.23184 3.35088 -0.338459 0
M  V30 17 H 3.17833 -3.24038 1.56655 0
M  V30 18 H 3.27247 -1.61896 2.2827 0
M  V30 19 H 4.08045 -1.96592 0.710178 0
M  V30 20 H -0.223949 -1.7555 -0.53648 0
M  V30 21 H -1.61119 -2.83187 -1.4765 0
M  V30 22 H -2.78467 1.51129 -1.48558 0
M  V30 23 H 1.67368 3.09697 0.299392 0
M  V30 24 H 1.14597 2.38846 1.86359 0
M  V30 25 H -0.811316 3.96368 -1.072 0
M  V30 26 H -1.82441 3.75309 0.406699 0
M  V30 END ATOM
M  V30 BEGIN BOND
M  V30 1 1 1 2
M  V30 2 1 2 3
M  V30 3 2 3 4
M  V30 4 1 3 5
M  V30 5 2 5 6
M  V30 6 1 6 7
M  V30 7 1 7 8
M  V30 8 1 8 9
M  V30 9 1 9 10
M  V30 10 1 9 11
M  V30 11 2 7 12
M  V30 12 1 12 13
M  V30 13 2 13 14
M  V30 14 1 14 15
M  V30 15 1 13 16
M  V30 16 1 14 5
M  V30 17 1 1 17
M  V30 18 1 1 18
M  V30 19 1 1 19
M  V30 20 1 6 20
M  V30 21 1 9 21
M  V30 22 1 12 22
M  V30 23 1 15 23
M  V30 24 1 15 24
M  V30 25 1 16 25
M  V30 26 1 16 26
M  V30 END BOND
M  V30 END CTAB
M  END
