
     RDKit          3D

  0  0  0  0  0  0  0  0  0  0999 V3000
M  V30 BEGIN CTAB
M  V30 COUNTS 41 42 0 0 0
M  V30 BEGIN ATOM
M  V30 1 N -6.07017 0.165823 0.530612 0
M  V30 2 C -4.71443 -0.30781 0.686129 0
M  V30 3 C -3.95769 -0.202721 -0.6306 0
M  V30 4 C -3.92718 1.24342 -1.07615 0
M  V30 5 C -2.57125 1.77629 -0.672666 0
M  V30 6 N -2.16665 0.830279 0.352278 0
M  V30 7 C -2.48002 -0.435249 -0.284957 0
M  V30 8 C -0.74464 0.975644 0.619139 0
M  V30 9 C -0.344426 -0.000551689 1.67357 0
M  V30 10 O 0.983482 -0.0004676 2.04501 0
M  V30 11 C 2.12269 -0.286202 1.37372 0
M  V30 12 C 2.15047 -0.695963 0.0607161 0
M  V30 13 C 3.36399 -0.972507 -0.576888 0
M  V30 14 C 4.56453 -0.849399 0.0716004 0
M  V30 15 C 4.52388 -0.440266 1.38245 0
M  V30 16 C 3.35665 -0.160983 2.03736 0
M  V30 17 S 6.10017 -1.18622 -0.692207 0
M  V30 18 O 7.08674 -1.79367 0.233079 0
M  V30 19 O 5.83073 -2.15267 -1.83674 0
M  V30 20 N 6.65831 0.278296 -1.4047 0
M  V30 21 H -6.49292 -0.190045 -0.354497 0
M  V30 22 H -6.66024 -0.121295 1.32382 0
M  V30 23 H -4.77915 -1.3588 1.02925 0
M  V30 24 H -4.22781 0.262074 1.48286 0
M  V30 25 H -4.32597 -0.896123 -1.38131 0
M  V30 26 H -4.06127 1.31692 -2.17877 0
M  V30 27 H -4.6887 1.86269 -0.539022 0
M  V30 28 H -1.8675 1.7901 -1.53106 0
M  V30 29 H -2.61938 2.81777 -0.297655 0
M  V30 30 H -1.90707 -0.581307 -1.2152 0
M  V30 31 H -2.37589 -1.3004 0.399245 0
M  V30 32 H -0.142 0.919965 -0.273938 0
M  V30 33 H -0.679589 2.00231 1.10594 0
M  V30 34 H -1.03479 0.119024 2.55204 0
M  V30 35 H -0.575217 -1.05877 1.32287 0
M  V30 36 H 1.26328 -0.843096 -0.539589 0
M  V30 37 H 3.3736 -1.29662 -1.62012 0
M  V30 38 H 5.45404 -0.332203 1.92678 0
M  V30 39 H 3.34567 0.161266 3.07432 0
M  V30 40 H 7.39752 0.130711 -2.11835 0
M  V30 41 H 5.83819 0.810761 -1.75467 0
M  V30 END ATOM
M  V30 BEGIN BOND
M  V30 1 1 1 2
M  V30 2 1 2 3
M  V30 3 1 3 4
M  V30 4 1 4 5
M  V30 5 1 5 6
M  V30 6 1 6 7
M  V30 7 1 6 8
M  V30 8 1 8 9
M  V30 9 1 9 10
M  V30 10 1 10 11
M  V30 11 2 11 12
M  V30 12 1 12 13
M  V30 13 2 13 14
M  V30 14 1 14 15
M  V30 15 2 15 16
M  V30 16 1 14 17
M  V30 17 2 17 18
M  V30 18 2 17 19
M  V30 19 1 17 20
M  V30 20 1 7 3
M  V30 21 1 16 11
M  V30 22 1 1 21
M  V30 23 1 1 22
M  V30 24 1 2 23
M  V30 25 1 2 24
M  V30 26 1 3 25
M  V30 27 1 4 26
M  V30 28 1 4 27
M  V30 29 1 5 28
M  V30 30 1 5 29
M  V30 31 1 7 30
M  V30 32 1 7 31
M  V30 33 1 8 32
M  V30 34 1 8 33
M  V30 35 1 9 34
M  V30 36 1 9 35
M  V30 37 1 12 36
M  V30 38 1 13 37
M  V30 39 1 15 38
M  V30 40 1 16 39
M  V30 41 1 20 40
M  V30 42 1 20 41
M  V30 END BOND
M  V30 END CTAB
M  END
