
     RDKit          3D

  0  0  0  0  0  0  0  0  0  0999 V3000
M  V30 BEGIN CTAB
M  V30 COUNTS 24 24 0 0 0
M  V30 BEGIN ATOM
M  V30 1 C 2.18244 -1.12888 1.37432 0
M  V30 2 N 1.771 0.0260278 0.604744 0
M  V30 3 C 0.399662 0.198772 0.253759 0
M  V30 4 C -0.0374542 1.28225 -0.477411 0
M  V30 5 C -1.34909 1.48607 -0.836327 0
M  V30 6 C -2.27972 0.560591 -0.446576 0
M  V30 7 C -1.83264 -0.524061 0.287092 0
M  V30 8 N -0.544185 -0.700566 0.625379 0
M  V30 9 N -2.80299 -1.50192 0.701258 0
M  V30 10 N -3.66096 0.657419 -0.753629 0
M  V30 11 O 2.64438 0.970996 0.192948 0
M  V30 12 C 3.44808 0.376745 -0.791564 0
M  V30 13 H 3.26961 -1.17628 1.46901 0
M  V30 14 H 1.86109 -2.03003 0.795148 0
M  V30 15 H 1.63552 -1.18562 2.34057 0
M  V30 16 H 0.706063 2.00909 -0.781233 0
M  V30 17 H -1.69028 2.33374 -1.40823 0
M  V30 18 H -3.78673 -1.25658 0.847882 0
M  V30 19 H -2.49898 -2.47529 0.854263 0
M  V30 20 H -3.94779 0.821548 -1.72547 0
M  V30 21 H -4.41071 0.569291 -0.0331622 0
M  V30 22 H 4.13979 -0.312661 -0.264903 0
M  V30 23 H 2.81403 -0.181499 -1.51667 0
M  V30 24 H 3.96986 1.18086 -1.3112 0
M  V30 END ATOM
M  V30 BEGIN BOND
M  V30 1 1 1 2
M  V30 2 1 2 3
M  V30 3 2 3 4
M  V30 4 1 4 5
M  V30 5 2 5 6
M  V30 6 1 6 7
M  V30 7 2 7 8
M  V30 8 1 7 9
M  V30 9 1 6 10
M  V30 10 1 2 11
M  V30 11 1 11 12
M  V30 12 1 8 3
M  V30 13 1 1 13
M  V30 14 1 1 14
M  V30 15 1 1 15
M  V30 16 1 4 16
M  V30 17 1 5 17
M  V30 18 1 9 18
M  V30 19 1 9 19
M  V30 20 1 10 20
M  V30 21 1 10 21
M  V30 22 1 12 22
M  V30 23 1 12 23
M  V30 24 1 12 24
M  V30 END BOND
M  V30 END CTAB
M  END
