
     RDKit          3D

  0  0  0  0  0  0  0  0  0  0999 V3000
M  V30 BEGIN CTAB
M  V30 COUNTS 27 26 0 0 0
M  V30 BEGIN ATOM
M  V30 1 N -2.29579 -0.310581 1.0125 0
M  V30 2 C -2.10764 0.323287 -0.257525 0
M  V30 3 N -1.90308 1.73753 -0.0642104 0
M  V30 4 C -0.844604 -0.232453 -0.884875 0
M  V30 5 C 0.292432 0.0969634 0.0828072 0
M  V30 6 C 1.61327 -0.439967 -0.491527 0
M  V30 7 C 2.68273 -0.0824454 0.506995 0
M  V30 8 C 4.01283 -0.531473 0.0980817 0
M  V30 9 O 5.10943 -0.290376 0.889806 0
M  V30 10 O 4.16178 -1.14228 -0.982797 0
M  V30 11 C -3.24691 0.0732833 -1.18691 0
M  V30 12 O -4.32611 -0.689297 -0.804211 0
M  V30 13 O -3.2305 0.563855 -2.34341 0
M  V30 14 H -2.24534 -1.33292 1.01055 0
M  V30 15 H -1.7028 0.113001 1.74067 0
M  V30 16 H -1.48704 1.99288 0.836998 0
M  V30 17 H -2.69 2.32373 -0.372727 0
M  V30 18 H -0.942539 -1.33208 -1.01538 0
M  V30 19 H -0.688238 0.268376 -1.8449 0
M  V30 20 H 0.328923 1.17927 0.206012 0
M  V30 21 H 0.159797 -0.384688 1.04903 0
M  V30 22 H 1.55512 -1.5348 -0.634808 0
M  V30 23 H 1.74419 0.0868697 -1.45537 0
M  V30 24 H 2.6122 1.01013 0.684681 0
M  V30 25 H 2.42819 -0.580516 1.46088 0
M  V30 26 H 5.18037 0.514571 1.49886 0
M  V30 27 H -4.17065 -1.39987 -0.0853475 0
M  V30 END ATOM
M  V30 BEGIN BOND
M  V30 1 1 1 2
M  V30 2 1 2 3
M  V30 3 1 2 4
M  V30 4 1 4 5
M  V30 5 1 5 6
M  V30 6 1 6 7
M  V30 7 1 7 8
M  V30 8 1 8 9
M  V30 9 2 8 10
M  V30 10 1 2 11
M  V30 11 1 11 12
M  V30 12 2 11 13
M  V30 13 1 1 14
M  V30 14 1 1 15
M  V30 15 1 3 16
M  V30 16 1 3 17
M  V30 17 1 4 18
M  V30 18 1 4 19
M  V30 19 1 5 20
M  V30 20 1 5 21
M  V30 21 1 6 22
M  V30 22 1 6 23
M  V30 23 1 7 24
M  V30 24 1 7 25
M  V30 25 1 9 26
M  V30 26 1 12 27
M  V30 END BOND
M  V30 END CTAB
M  END
