
     RDKit          3D

  0  0  0  0  0  0  0  0  0  0999 V3000
M  V30 BEGIN CTAB
M  V30 COUNTS 20 20 0 0 0
M  V30 BEGIN ATOM
M  V30 1 N -2.93181 -1.42902 -0.0993151 0
M  V30 2 C -1.83445 -0.542625 -0.166783 0
M  V30 3 C -0.579021 -1.03681 -0.42085 0
M  V30 4 C 0.514628 -0.192197 -0.492639 0
M  V30 5 O 1.75785 -0.720934 -0.749173 0
M  V30 6 C 2.67588 -1.17959 0.212302 0
M  V30 7 F 2.98585 -0.1249 1.04193 0
M  V30 8 F 3.8407 -1.62102 -0.396464 0
M  V30 9 F 2.16783 -2.24102 0.947146 0
M  V30 10 C 0.341534 1.16152 -0.306992 0
M  V30 11 C -0.923859 1.62052 -0.0554224 0
M  V30 12 C -2.02879 0.806452 0.0217881 0
M  V30 13 F -1.07012 2.96868 0.125521 0
M  V30 14 N 1.46614 2.06827 -0.380592 0
M  V30 15 H -3.8488 -1.1391 -0.534333 0
M  V30 16 H -2.87794 -2.38064 0.371847 0
M  V30 17 H -0.40854 -2.08176 -0.570025 0
M  V30 18 H -2.97963 1.25924 0.223465 0
M  V30 19 H 1.74011 2.54952 0.502283 0
M  V30 20 H 1.99245 2.25542 -1.23575 0
M  V30 END ATOM
M  V30 BEGIN BOND
M  V30 1 1 1 2
M  V30 2 2 2 3
M  V30 3 1 3 4
M  V30 4 1 4 5
M  V30 5 1 5 6
M  V30 6 1 6 7
M  V30 7 1 6 8
M  V30 8 1 6 9
M  V30 9 2 4 10
M  V30 10 1 10 11
M  V30 11 2 11 12
M  V30 12 1 11 13
M  V30 13 1 10 14
M  V30 14 1 12 2
M  V30 15 1 1 15
M  V30 16 1 1 16
M  V30 17 1 3 17
M  V30 18 1 12 18
M  V30 19 1 14 19
M  V30 20 1 14 20
M  V30 END BOND
M  V30 END CTAB
M  END
