
     RDKit          3D

  0  0  0  0  0  0  0  0  0  0999 V3000
M  V30 BEGIN CTAB
M  V30 COUNTS 41 42 0 0 0
M  V30 BEGIN ATOM
M  V30 1 C -4.40803 -1.50064 -0.489783 0
M  V30 2 C -3.71888 -0.293088 0.0594676 0
M  V30 3 C -2.4223 0.0339923 -0.633862 0
M  V30 4 C -2.56982 0.309749 -2.08536 0
M  V30 5 C -1.32837 -0.140618 -2.80656 0
M  V30 6 C -0.0671326 0.28803 -2.01481 0
M  V30 7 N -0.06474 -0.280938 -0.710349 0
M  V30 8 C -1.36349 -0.996092 -0.412714 0
M  V30 9 C 0.913298 -0.255753 0.257132 0
M  V30 10 O 0.583198 -0.894012 1.34964 0
M  V30 11 C 2.20363 0.334976 0.277579 0
M  V30 12 C 2.78464 1.06545 -0.717842 0
M  V30 13 C 4.06265 1.63449 -0.650173 0
M  V30 14 F 4.56459 2.33779 -1.66707 0
M  V30 15 C 4.78786 1.45232 0.487316 0
M  V30 16 C 4.26601 0.736052 1.51272 0
M  V30 17 C 3.02776 0.19272 1.42956 0
M  V30 18 N 2.4698 -0.565094 2.50848 0
M  V30 19 N 5.01321 0.538285 2.70736 0 CHG=1
M  V30 20 O 6.24679 0.550968 2.64815 0
M  V30 21 O 4.41881 0.333105 3.92834 0 CHG=-1
M  V30 22 N -3.5084 -0.509195 1.47904 0
M  V30 23 H -3.7671 -2.41049 -0.428794 0
M  V30 24 H -5.26512 -1.71796 0.214346 0
M  V30 25 H -4.87376 -1.35719 -1.47403 0
M  V30 26 H -4.41849 0.563147 -0.0246047 0
M  V30 27 H -2.05247 0.979963 -0.157104 0
M  V30 28 H -2.82561 1.36739 -2.30759 0
M  V30 29 H -3.39788 -0.360562 -2.46443 0
M  V30 30 H -1.27303 -1.20804 -3.02847 0
M  V30 31 H -1.22754 0.430107 -3.77338 0
M  V30 32 H 0.012519 1.38725 -2.06425 0
M  V30 33 H 0.761966 -0.124422 -2.66238 0
M  V30 34 H -1.33434 -1.35583 0.639978 0
M  V30 35 H -1.41151 -1.81011 -1.13165 0
M  V30 36 H 2.2444 1.23828 -1.63605 0
M  V30 37 H 5.7925 1.86064 0.625247 0
M  V30 38 H 1.92318 -0.0729663 3.23952 0
M  V30 39 H 2.60048 -1.58308 2.57363 0
M  V30 40 H -4.44805 -0.502636 1.94641 0
M  V30 41 H -2.93125 0.304007 1.84226 0
M  V30 END ATOM
M  V30 BEGIN BOND
M  V30 1 1 1 2
M  V30 2 1 2 3
M  V30 3 1 3 4
M  V30 4 1 4 5
M  V30 5 1 5 6
M  V30 6 1 6 7
M  V30 7 1 7 8
M  V30 8 1 7 9
M  V30 9 2 9 10
M  V30 10 1 9 11
M  V30 11 2 11 12
M  V30 12 1 12 13
M  V30 13 1 13 14
M  V30 14 2 13 15
M  V30 15 1 15 16
M  V30 16 2 16 17
M  V30 17 1 17 18
M  V30 18 1 16 19
M  V30 19 2 19 20
M  V30 20 1 19 21
M  V30 21 1 2 22
M  V30 22 1 8 3
M  V30 23 1 17 11
M  V30 24 1 1 23
M  V30 25 1 1 24
M  V30 26 1 1 25
M  V30 27 1 2 26
M  V30 28 1 3 27
M  V30 29 1 4 28
M  V30 30 1 4 29
M  V30 31 1 5 30
M  V30 32 1 5 31
M  V30 33 1 6 32
M  V30 34 1 6 33
M  V30 35 1 8 34
M  V30 36 1 8 35
M  V30 37 1 12 36
M  V30 38 1 15 37
M  V30 39 1 18 38
M  V30 40 1 18 39
M  V30 41 1 22 40
M  V30 42 1 22 41
M  V30 END BOND
M  V30 END CTAB
M  END
