
     RDKit          3D

  0  0  0  0  0  0  0  0  0  0999 V3000
M  V30 BEGIN CTAB
M  V30 COUNTS 84 90 0 0 0
M  V30 BEGIN ATOM
M  V30 1 O 2.10173 -0.598975 -0.340068 0
M  V30 2 C 1.61392 -1.29166 -1.46359 0
M  V30 3 C 2.68261 -1.53861 -2.49072 0
M  V30 4 N 3.28819 -0.38746 -3.06809 0
M  V30 5 C 3.88788 0.618547 -2.30237 0
M  V30 6 C 3.19573 1.76566 -2.00564 0
M  V30 7 F 1.9302 1.96056 -2.48771 0
M  V30 8 C 3.82005 2.71144 -1.23529 0
M  V30 9 C 5.1135 2.47939 -0.788937 0
M  V30 10 C 5.8344 1.31739 -1.0818 0
M  V30 11 C 5.20174 0.37733 -1.85229 0
M  V30 12 Cl 5.96181 -1.11694 -2.30601 0
M  V30 13 N 7.07408 1.12419 -0.639864 0
M  V30 14 C 7.62529 2.14069 0.13381 0
M  V30 15 C 6.97409 3.28217 0.446384 0
M  V30 16 C 5.69946 3.46346 -0.0169574 0
M  V30 17 O 5.06777 4.51948 0.259294 0
M  V30 18 C 7.57706 4.34787 1.26822 0
M  V30 19 O 6.93858 5.39462 1.53771 0
M  V30 20 O 8.8601 4.22079 1.76223 0
M  V30 21 C 7.91706 0.0216972 -0.846669 0
M  V30 22 N 7.93934 -0.993704 0.0134199 0
M  V30 23 C 8.82469 -2.01847 -0.0560661 0
M  V30 24 N 8.85882 -3.1036 0.854102 0
M  V30 25 C 9.73944 -1.98787 -1.07919 0
M  V30 26 C 9.78269 -0.972747 -2.01294 0
M  V30 27 C 8.83018 0.0441585 -1.8626 0
M  V30 28 F 8.87272 1.0586 -2.78156 0
M  V30 29 F 10.6804 -2.97586 -1.24082 0
M  V30 30 C 1.02455 -2.60401 -1.02315 0
M  V30 31 O -0.0168001 -2.50196 -0.151913 0
M  V30 32 C -1.12156 -1.84766 -0.639819 0
M  V30 33 C -2.41801 -2.62111 -0.420217 0
M  V30 34 N -2.90413 -1.63702 0.519287 0
M  V30 35 C -1.71078 -0.852699 0.295356 0
M  V30 36 C -4.04996 -1.44868 1.34808 0
M  V30 37 C -4.10559 -1.91184 2.6372 0
M  V30 38 F -3.00015 -2.57181 3.11258 0
M  V30 39 C -5.21686 -1.72405 3.41831 0
M  V30 40 C -6.32452 -1.06258 2.94207 0
M  V30 41 C -6.31023 -0.569696 1.62193 0
M  V30 42 C -5.18153 -0.77264 0.861155 0
M  V30 43 Cl -5.05676 -0.208773 -0.76802 0
M  V30 44 N -7.3869 0.0688313 1.16758 0
M  V30 45 C -8.469 0.217033 2.01662 0
M  V30 46 C -8.51637 -0.244817 3.29263 0
M  V30 47 C -7.41418 -0.90411 3.77262 0
M  V30 48 O -7.40991 -1.35404 4.95775 0
M  V30 49 C -9.68409 -0.067361 4.16 0
M  V30 50 O -9.70717 -0.504557 5.33793 0
M  V30 51 O -10.8086 0.597639 3.69389 0
M  V30 52 C -7.54325 0.620304 -0.115515 0
M  V30 53 N -7.23496 1.88906 -0.342353 0
M  V30 54 C -7.5234 2.48994 -1.54226 0
M  V30 55 N -7.20071 3.84506 -1.79502 0
M  V30 56 C -8.1468 1.76613 -2.54253 0
M  V30 57 C -8.47788 0.445354 -2.33709 0
M  V30 58 C -8.15695 -0.104862 -1.09403 0
M  V30 59 F -8.51918 -1.41915 -0.956362 0
M  V30 60 F -8.43986 2.34802 -3.73869 0
M  V30 61 H 1.55837 -0.781531 0.45639 0
M  V30 62 H 0.79422 -0.656852 -1.8497 0
M  V30 63 H 3.49565 -2.12871 -1.96837 0
M  V30 64 H 2.31494 -2.22692 -3.29617 0
M  V30 65 H 3.30003 -0.261254 -4.12087 0
M  V30 66 H 3.30212 3.63379 -0.978897 0
M  V30 67 H 8.62745 1.98008 0.488795 0
M  V30 68 H 9.16009 3.46748 2.37874 0
M  V30 69 H 9.77206 -3.33833 1.31255 0
M  V30 70 H 8.03356 -3.68913 1.10187 0
M  V30 71 H 10.4915 -0.930415 -2.82259 0
M  V30 72 H 0.719579 -3.14874 -1.94046 0
M  V30 73 H 1.86012 -3.16698 -0.52081 0
M  V30 74 H -0.994894 -1.50575 -1.69696 0
M  V30 75 H -2.24147 -3.59322 0.119176 0
M  V30 76 H -3.02505 -2.73043 -1.35078 0
M  V30 77 H -1.0732 -0.72269 1.21735 0
M  V30 78 H -1.89525 0.164458 -0.115588 0
M  V30 79 H -5.24681 -2.09756 4.44137 0
M  V30 80 H -9.3214 0.740442 1.60997 0
M  V30 81 H -11.3468 1.20061 4.28876 0
M  V30 82 H -7.54009 4.57535 -1.13511 0
M  V30 83 H -6.63634 4.14722 -2.61488 0
M  V30 84 H -8.97049 -0.147002 -3.1128 0
M  V30 END ATOM
M  V30 BEGIN BOND
M  V30 1 1 1 2
M  V30 2 1 2 3
M  V30 3 1 3 4
M  V30 4 1 4 5
M  V30 5 2 5 6
M  V30 6 1 6 7
M  V30 7 1 6 8
M  V30 8 2 8 9
M  V30 9 1 9 10
M  V30 10 2 10 11
M  V30 11 1 11 12
M  V30 12 1 10 13
M  V30 13 1 13 14
M  V30 14 2 14 15
M  V30 15 1 15 16
M  V30 16 2 16 17
M  V30 17 1 15 18
M  V30 18 2 18 19
M  V30 19 1 18 20
M  V30 20 1 13 21
M  V30 21 2 21 22
M  V30 22 1 22 23
M  V30 23 1 23 24
M  V30 24 2 23 25
M  V30 25 1 25 26
M  V30 26 2 26 27
M  V30 27 1 27 28
M  V30 28 1 25 29
M  V30 29 1 2 30
M  V30 30 1 30 31
M  V30 31 1 31 32
M  V30 32 1 32 33
M  V30 33 1 33 34
M  V30 34 1 34 35
M  V30 35 1 34 36
M  V30 36 2 36 37
M  V30 37 1 37 38
M  V30 38 1 37 39
M  V30 39 2 39 40
M  V30 40 1 40 41
M  V30 41 2 41 42
M  V30 42 1 42 43
M  V30 43 1 41 44
M  V30 44 1 44 45
M  V30 45 2 45 46
M  V30 46 1 46 47
M  V30 47 2 47 48
M  V30 48 1 46 49
M  V30 49 2 49 50
M  V30 50 1 49 51
M  V30 51 1 44 52
M  V30 52 2 52 53
M  V30 53 1 53 54
M  V30 54 1 54 55
M  V30 55 2 54 56
M  V30 56 1 56 57
M  V30 57 2 57 58
M  V30 58 1 58 59
M  V30 59 1 56 60
M  V30 60 1 11 5
M  V30 61 1 27 21
M  V30 62 1 35 32
M  V30 63 1 42 36
M  V30 64 1 58 52
M  V30 65 1 16 9
M  V30 66 1 47 40
M  V30 67 1 1 61
M  V30 68 1 2 62
M  V30 69 1 3 63
M  V30 70 1 3 64
M  V30 71 1 4 65
M  V30 72 1 8 66
M  V30 73 1 14 67
M  V30 74 1 20 68
M  V30 75 1 24 69
M  V30 76 1 24 70
M  V30 77 1 26 71
M  V30 78 1 30 72
M  V30 79 1 30 73
M  V30 80 1 32 74
M  V30 81 1 33 75
M  V30 82 1 33 76
M  V30 83 1 35 77
M  V30 84 1 35 78
M  V30 85 1 39 79
M  V30 86 1 45 80
M  V30 87 1 51 81
M  V30 88 1 55 82
M  V30 89 1 55 83
M  V30 90 1 57 84
M  V30 END BOND
M  V30 END CTAB
M  END
