
     RDKit          3D

  0  0  0  0  0  0  0  0  0  0999 V3000
M  V30 BEGIN CTAB
M  V30 COUNTS 38 40 0 0 0
M  V30 BEGIN ATOM
M  V30 1 N -7.47615 -0.280665 -0.212642 0
M  V30 2 C -6.35028 -1.05101 -0.609435 0
M  V30 3 N -6.61504 -2.15657 -1.20705 0
M  V30 4 C -4.98927 -0.616155 -0.355558 0
M  V30 5 C -4.71828 0.57149 0.286232 0
M  V30 6 C -3.43237 0.999318 0.535212 0
M  V30 7 C -2.36347 0.228395 0.137249 0
M  V30 8 C -2.60274 -0.971199 -0.510481 0
M  V30 9 C -3.91844 -1.36845 -0.74349 0
M  V30 10 C -0.987285 0.669731 0.39483 0
M  V30 11 C -0.663823 1.84416 1.03031 0
M  V30 12 C 0.729263 1.86883 1.06441 0
M  V30 13 C 1.17582 0.717055 0.452615 0
M  V30 14 O 0.12474 0.0511322 0.0793033 0
M  V30 15 C 2.5825 0.336302 0.269212 0
M  V30 16 C 3.58334 1.16316 0.728178 0
M  V30 17 C 4.90815 0.805699 0.556039 0
M  V30 18 C 5.24469 -0.380897 -0.0761048 0
M  V30 19 N 4.24166 -1.14879 -0.50344 0
M  V30 20 C 2.94709 -0.821095 -0.346832 0
M  V30 21 C 6.64525 -0.738255 -0.247068 0
M  V30 22 N 7.70963 0.0812225 0.20886 0
M  V30 23 N 6.93701 -1.84053 -0.834605 0
M  V30 24 H -8.26575 -0.175757 -0.865141 0
M  V30 25 H -7.50098 0.166957 0.716784 0
M  V30 26 H -5.90909 -2.81162 -1.54823 0
M  V30 27 H -5.55762 1.18067 0.600779 0
M  V30 28 H -3.23418 1.95037 1.04887 0
M  V30 29 H -1.76425 -1.56957 -0.819236 0
M  V30 30 H -3.99994 -2.323 -1.25728 0
M  V30 31 H -1.34464 2.59247 1.42194 0
M  V30 32 H 1.30113 2.66989 1.5031 0
M  V30 33 H 3.30554 2.09021 1.22183 0
M  V30 34 H 5.68194 1.47051 0.924599 0
M  V30 35 H 2.18099 -1.48404 -0.714271 0
M  V30 36 H 8.51431 0.274673 -0.44878 0
M  V30 37 H 7.68348 0.475927 1.17352 0
M  V30 38 H 6.19707 -2.47057 -1.18398 0
M  V30 END ATOM
M  V30 BEGIN BOND
M  V30 1 1 1 2
M  V30 2 2 2 3 CFG=2
M  V30 3 1 2 4
M  V30 4 2 4 5
M  V30 5 1 5 6
M  V30 6 2 6 7
M  V30 7 1 7 8
M  V30 8 2 8 9
M  V30 9 1 7 10
M  V30 10 2 10 11
M  V30 11 1 11 12
M  V30 12 2 12 13
M  V30 13 1 13 14
M  V30 14 1 13 15
M  V30 15 2 15 16
M  V30 16 1 16 17
M  V30 17 2 17 18
M  V30 18 1 18 19
M  V30 19 2 19 20
M  V30 20 1 18 21
M  V30 21 1 21 22
M  V30 22 2 21 23 CFG=2
M  V30 23 1 9 4
M  V30 24 1 14 10
M  V30 25 1 20 15
M  V30 26 1 1 24
M  V30 27 1 1 25
M  V30 28 1 3 26
M  V30 29 1 5 27
M  V30 30 1 6 28
M  V30 31 1 8 29
M  V30 32 1 9 30
M  V30 33 1 11 31
M  V30 34 1 12 32
M  V30 35 1 16 33
M  V30 36 1 17 34
M  V30 37 1 20 35
M  V30 38 1 22 36
M  V30 39 1 22 37
M  V30 40 1 23 38
M  V30 END BOND
M  V30 END CTAB
M  END
