
     RDKit          3D

  0  0  0  0  0  0  0  0  0  0999 V3000
M  V30 BEGIN CTAB
M  V30 COUNTS 31 31 0 0 0
M  V30 BEGIN ATOM
M  V30 1 C -3.15034 -0.325674 -1.43434 0
M  V30 2 C -1.68499 -0.206729 -1.28885 0
M  V30 3 C -1.10638 -0.395735 0.0803957 0
M  V30 4 C 0.397027 -0.251977 -0.0809173 0
M  V30 5 N 1.00355 0.134153 -1.19699 0
M  V30 6 C 2.32746 0.162615 -0.996537 0
M  V30 7 N 2.54127 -0.21759 0.281402 0
M  V30 8 C 1.35456 -0.477595 0.860653 0
M  V30 9 N 1.15089 -0.911457 2.20627 0
M  V30 10 N 3.78498 -0.332013 0.928629 0
M  V30 11 C 3.38321 0.541854 -1.98934 0
M  V30 12 C -1.57228 0.634153 1.04742 0
M  V30 13 C -3.01784 0.729396 1.33787 0
M  V30 14 H -3.31573 -0.888778 -2.41997 0
M  V30 15 H -3.67549 0.639745 -1.62854 0
M  V30 16 H -3.63547 -0.936963 -0.674263 0
M  V30 17 H -1.29601 0.801803 -1.63391 0
M  V30 18 H -1.15146 -0.929545 -1.97622 0
M  V30 19 H -1.31998 -1.42733 0.434752 0
M  V30 20 H 1.02883 -1.92356 2.45009 0
M  V30 21 H 1.11987 -0.228087 2.97397 0
M  V30 22 H 4.35496 -1.1663 0.764506 0
M  V30 23 H 4.1313 0.408284 1.56371 0
M  V30 24 H 4.13292 1.21385 -1.53665 0
M  V30 25 H 2.8887 1.15043 -2.79572 0
M  V30 26 H 3.81004 -0.344647 -2.48064 0
M  V30 27 H -1.00211 0.475804 2.01898 0
M  V30 28 H -1.19959 1.66043 0.732789 0
M  V30 29 H -3.53003 -0.225204 1.53367 0
M  V30 30 H -3.605 1.3107 0.605662 0
M  V30 31 H -3.14684 1.32596 2.31212 0
M  V30 END ATOM
M  V30 BEGIN BOND
M  V30 1 1 1 2
M  V30 2 1 2 3
M  V30 3 1 3 4
M  V30 4 1 4 5
M  V30 5 2 5 6
M  V30 6 1 6 7
M  V30 7 1 7 8
M  V30 8 1 8 9
M  V30 9 1 7 10
M  V30 10 1 6 11
M  V30 11 1 3 12
M  V30 12 1 12 13
M  V30 13 2 8 4
M  V30 14 1 1 14
M  V30 15 1 1 15
M  V30 16 1 1 16
M  V30 17 1 2 17
M  V30 18 1 2 18
M  V30 19 1 3 19
M  V30 20 1 9 20
M  V30 21 1 9 21
M  V30 22 1 10 22
M  V30 23 1 10 23
M  V30 24 1 11 24
M  V30 25 1 11 25
M  V30 26 1 11 26
M  V30 27 1 12 27
M  V30 28 1 12 28
M  V30 29 1 13 29
M  V30 30 1 13 30
M  V30 31 1 13 31
M  V30 END BOND
M  V30 END CTAB
M  END
