
     RDKit          3D

  0  0  0  0  0  0  0  0  0  0999 V3000
M  V30 BEGIN CTAB
M  V30 COUNTS 66 66 0 0 0
M  V30 BEGIN ATOM
M  V30 1 C -1.31862 -3.34733 -2.12478 0
M  V30 2 C -1.41161 -2.62801 -0.782244 0 CFG=2
M  V30 3 C -2.67459 -1.79217 -0.836334 0
M  V30 4 C -2.77484 -0.897215 0.405005 0
M  V30 5 C -4.18566 -0.426672 0.494899 0
M  V30 6 C -2.51805 -1.7851 1.63058 0
M  V30 7 N -1.78353 0.0964828 0.301511 0
M  V30 8 C -2.20638 1.43381 0.131434 0 CFG=2
M  V30 9 C -2.3439 1.84302 -1.3265 0
M  V30 10 N -2.77952 3.22157 -1.44444 0
M  V30 11 C -1.11655 2.33896 0.724937 0
M  V30 12 N 0.164283 2.07301 0.0473118 0
M  V30 13 C 1.14942 1.99402 1.07494 0 CFG=2
M  V30 14 C 1.1904 3.37717 1.74492 0
M  V30 15 C 2.49417 1.58371 0.719788 0
M  V30 16 C 2.73042 0.808571 -0.514231 0
M  V30 17 C 4.2541 0.642986 -0.611436 0
M  V30 18 C 2.39028 1.67645 -1.73967 0
M  V30 19 N 2.1277 -0.4131 -0.693249 0
M  V30 20 C 1.86784 -1.31884 0.311234 0 CFG=2
M  V30 21 C 3.05349 -2.08779 0.852972 0
M  V30 22 N 2.64854 -3.00595 1.90253 0
M  V30 23 C 0.93516 -2.39114 -0.286528 0
M  V30 24 N -0.270005 -1.74843 -0.704837 0
M  V30 25 H -0.523061 -4.10326 -2.04377 0
M  V30 26 H -1.08728 -2.55967 -2.87838 0
M  V30 27 H -2.32233 -3.76819 -2.32463 0
M  V30 28 H -1.45257 -3.37406 0.0185758 0
M  V30 29 H -3.58088 -2.38222 -0.974933 0
M  V30 30 H -2.55777 -1.10365 -1.69851 0
M  V30 31 H -4.38285 0.267692 1.32412 0
M  V30 32 H -4.59582 -0.0549173 -0.486009 0
M  V30 33 H -4.81909 -1.33739 0.715685 0
M  V30 34 H -3.08322 -2.73942 1.51315 0
M  V30 35 H -1.44692 -1.94406 1.79022 0
M  V30 36 H -2.96648 -1.26217 2.4957 0
M  V30 37 H -1.12174 0.0214275 1.08678 0
M  V30 38 H -3.13403 1.72408 0.631704 0
M  V30 39 H -1.34351 1.78107 -1.81583 0
M  V30 40 H -3.10104 1.22862 -1.85599 0
M  V30 41 H -1.91877 3.81702 -1.27266 0
M  V30 42 H -3.38086 3.40401 -0.587586 0
M  V30 43 H -1.06398 2.06635 1.79985 0
M  V30 44 H -1.39685 3.3968 0.670597 0
M  V30 45 H 0.302492 2.89554 -0.58389 0
M  V30 46 H 0.735598 1.31744 1.88005 0
M  V30 47 H 0.473106 3.4488 2.57296 0
M  V30 48 H 2.21035 3.55679 2.14648 0
M  V30 49 H 1.00013 4.18085 0.989496 0
M  V30 50 H 3.1597 2.49741 0.647873 0
M  V30 51 H 2.94855 1.0047 1.57893 0
M  V30 52 H 4.53006 -0.265887 -1.1657 0
M  V30 53 H 4.71802 1.52565 -1.09823 0
M  V30 54 H 4.6973 0.625879 0.427666 0
M  V30 55 H 1.38965 1.38481 -2.13115 0
M  V30 56 H 2.5059 2.73739 -1.53468 0
M  V30 57 H 3.10168 1.43956 -2.58419 0
M  V30 58 H 1.80421 -0.604092 -1.64767 0
M  V30 59 H 1.30866 -0.941271 1.19901 0
M  V30 60 H 3.8457 -1.46046 1.25287 0
M  V30 61 H 3.52557 -2.73232 0.0549906 0
M  V30 62 H 1.85696 -2.54103 2.4341 0
M  V30 63 H 3.41773 -3.19271 2.57744 0
M  V30 64 H 1.48038 -2.73488 -1.21208 0
M  V30 65 H 0.80062 -3.22482 0.402848 0
M  V30 66 H -0.155843 -1.24339 -1.59302 0
M  V30 END ATOM
M  V30 BEGIN BOND
M  V30 1 1 1 2
M  V30 2 1 2 3
M  V30 3 1 3 4
M  V30 4 1 4 5
M  V30 5 1 4 6
M  V30 6 1 4 7
M  V30 7 1 7 8
M  V30 8 1 8 9
M  V30 9 1 9 10
M  V30 10 1 8 11
M  V30 11 1 11 12
M  V30 12 1 12 13
M  V30 13 1 13 14
M  V30 14 1 13 15
M  V30 15 1 15 16
M  V30 16 1 16 17
M  V30 17 1 16 18
M  V30 18 1 16 19
M  V30 19 1 19 20
M  V30 20 1 20 21
M  V30 21 1 21 22
M  V30 22 1 20 23
M  V30 23 1 23 24
M  V30 24 1 24 2
M  V30 25 1 1 25
M  V30 26 1 1 26
M  V30 27 1 1 27
M  V30 28 1 2 28 CFG=1
M  V30 29 1 3 29
M  V30 30 1 3 30
M  V30 31 1 5 31
M  V30 32 1 5 32
M  V30 33 1 5 33
M  V30 34 1 6 34
M  V30 35 1 6 35
M  V30 36 1 6 36
M  V30 37 1 7 37
M  V30 38 1 8 38 CFG=1
M  V30 39 1 9 39
M  V30 40 1 9 40
M  V30 41 1 10 41
M  V30 42 1 10 42
M  V30 43 1 11 43
M  V30 44 1 11 44
M  V30 45 1 12 45
M  V30 46 1 13 46 CFG=1
M  V30 47 1 14 47
M  V30 48 1 14 48
M  V30 49 1 14 49
M  V30 50 1 15 50
M  V30 51 1 15 51
M  V30 52 1 17 52
M  V30 53 1 17 53
M  V30 54 1 17 54
M  V30 55 1 18 55
M  V30 56 1 18 56
M  V30 57 1 18 57
M  V30 58 1 19 58
M  V30 59 1 20 59 CFG=1
M  V30 60 1 21 60
M  V30 61 1 21 61
M  V30 62 1 22 62
M  V30 63 1 22 63
M  V30 64 1 23 64
M  V30 65 1 23 65
M  V30 66 1 24 66
M  V30 END BOND
M  V30 END CTAB
M  END
