
     RDKit          3D

  0  0  0  0  0  0  0  0  0  0999 V3000
M  V30 BEGIN CTAB
M  V30 COUNTS 31 31 0 0 0
M  V30 BEGIN ATOM
M  V30 1 N -0.293555 1.70517 0.328814 0
M  V30 2 C -0.721874 0.310524 0.448254 0
M  V30 3 C 0.00676708 -0.511475 -0.532265 0
M  V30 4 C 1.47385 -0.147395 -0.297508 0
M  V30 5 C 2.22454 0.711224 -1.04856 0
M  V30 6 N 3.44876 0.908831 -0.671579 0
M  V30 7 C 3.92096 0.292581 0.397132 0
M  V30 8 S 2.5749 -0.620748 0.910063 0
M  V30 9 N 5.23168 0.383375 0.974438 0
M  V30 10 O -0.231656 -0.193232 -1.87007 0
M  V30 11 C -0.0688836 -1.99972 -0.33713 0
M  V30 12 C -2.20142 0.322597 0.472193 0
M  V30 13 C -2.81047 0.987989 -0.77387 0
M  V30 14 C -2.90123 -1.00563 0.593055 0
M  V30 15 H -0.687644 2.25541 1.11693 0
M  V30 16 H -0.620689 2.13615 -0.553009 0
M  V30 17 H -0.327857 0.0101483 1.46897 0
M  V30 18 H 1.79482 1.22114 -1.94226 0
M  V30 19 H 5.88376 1.08618 0.554408 0
M  V30 20 H 5.51135 -0.220547 1.7756 0
M  V30 21 H 0.151913 -0.944379 -2.43075 0
M  V30 22 H -0.351876 -2.17909 0.726499 0
M  V30 23 H 0.896074 -2.52246 -0.498952 0
M  V30 24 H -0.778588 -2.48882 -1.04487 0
M  V30 25 H -2.5271 0.95616 1.33091 0
M  V30 26 H -3.92724 0.860162 -0.62336 0
M  V30 27 H -2.65596 2.10204 -0.725204 0
M  V30 28 H -2.52536 0.531113 -1.70921 0
M  V30 29 H -3.97509 -0.768757 0.765321 0
M  V30 30 H -2.91867 -1.53434 -0.410001 0
M  V30 31 H -2.5942 -1.6442 1.41119 0
M  V30 END ATOM
M  V30 BEGIN BOND
M  V30 1 1 1 2
M  V30 2 1 2 3
M  V30 3 1 3 4
M  V30 4 2 4 5
M  V30 5 1 5 6
M  V30 6 2 6 7
M  V30 7 1 7 8
M  V30 8 1 7 9
M  V30 9 1 3 10
M  V30 10 1 3 11
M  V30 11 1 2 12
M  V30 12 1 12 13
M  V30 13 1 12 14
M  V30 14 1 8 4
M  V30 15 1 1 15
M  V30 16 1 1 16
M  V30 17 1 2 17
M  V30 18 1 5 18
M  V30 19 1 9 19
M  V30 20 1 9 20
M  V30 21 1 10 21
M  V30 22 1 11 22
M  V30 23 1 11 23
M  V30 24 1 11 24
M  V30 25 1 12 25
M  V30 26 1 13 26
M  V30 27 1 13 27
M  V30 28 1 13 28
M  V30 29 1 14 29
M  V30 30 1 14 30
M  V30 31 1 14 31
M  V30 END BOND
M  V30 END CTAB
M  END
