
     RDKit          3D

  0  0  0  0  0  0  0  0  0  0999 V3000
M  V30 BEGIN CTAB
M  V30 COUNTS 52 53 0 0 0
M  V30 BEGIN ATOM
M  V30 1 N -3.94371 2.56939 0.0345628 0
M  V30 2 C -3.62641 1.72414 -1.07561 0
M  V30 3 C -3.54507 0.261671 -0.695101 0
M  V30 4 C -4.86288 -0.232532 -0.133079 0
M  V30 5 C -5.97826 -0.0888047 -1.11831 0
M  V30 6 C -5.24468 0.399814 1.1609 0
M  V30 7 N -2.49315 -0.0402161 0.224459 0
M  V30 8 C -1.11563 0.192504 -0.0481329 0
M  V30 9 O -0.767793 0.685123 -1.1382 0
M  V30 10 C -0.0571223 -0.13802 0.941619 0
M  V30 11 C -0.0111124 -1.58613 1.30966 0
M  V30 12 C 1.35535 -2.05316 0.956801 0
M  V30 13 O 1.69858 -3.2402 0.845162 0
M  V30 14 N 2.16828 -0.901995 0.777491 0
M  V30 15 C 1.29782 0.192612 0.401739 0
M  V30 16 C 3.5826 -0.825222 0.934856 0
M  V30 17 C 4.20588 -1.1376 2.1309 0
M  V30 18 C 5.57299 -1.0704 2.3074 0
M  V30 19 C 6.3298 -0.669783 1.22318 0
M  V30 20 C 5.7604 -0.347909 0.0119313 0
M  V30 21 C 4.39103 -0.430165 -0.116536 0
M  V30 22 S 6.7804 0.157196 -1.33381 0
M  V30 23 O 8.14228 -0.460802 -1.09161 0
M  V30 24 O 6.18989 -0.331622 -2.61952 0
M  V30 25 N 6.98245 1.86025 -1.30755 0
M  V30 26 C -3.30361 -0.518852 -1.97136 0
M  V30 27 H -4.26035 3.50882 -0.219247 0
M  V30 28 H -3.27328 2.50901 0.804126 0
M  V30 29 H -4.4549 1.78394 -1.84016 0
M  V30 30 H -2.72538 2.07499 -1.60457 0
M  V30 31 H -4.69795 -1.33218 0.0701076 0
M  V30 32 H -5.58726 -0.0162894 -2.14653 0
M  V30 33 H -6.58778 0.825135 -0.953723 0
M  V30 34 H -6.69846 -0.949696 -1.0093 0
M  V30 35 H -5.84866 -0.358381 1.74247 0
M  V30 36 H -4.36796 0.608987 1.7806 0
M  V30 37 H -5.93633 1.26253 1.04248 0
M  V30 38 H -2.73194 -0.460815 1.16594 0
M  V30 39 H -0.228152 0.439404 1.89015 0
M  V30 40 H -0.206185 -1.75654 2.40262 0
M  V30 41 H -0.78926 -2.14307 0.764764 0
M  V30 42 H 1.28775 0.242571 -0.706168 0
M  V30 43 H 1.67142 1.17207 0.761613 0
M  V30 44 H 3.59404 -1.44511 2.95586 0
M  V30 45 H 6.0696 -1.31239 3.23675 0
M  V30 46 H 7.40668 -0.61802 1.36639 0
M  V30 47 H 3.92747 -0.181041 -1.06224 0
M  V30 48 H 6.72591 2.2677 -0.378169 0
M  V30 49 H 7.96591 2.15702 -1.49268 0
M  V30 50 H -2.31616 -1.02373 -1.98037 0
M  V30 51 H -4.04367 -1.34383 -2.11569 0
M  V30 52 H -3.40339 0.119606 -2.88057 0
M  V30 END ATOM
M  V30 BEGIN BOND
M  V30 1 1 1 2
M  V30 2 1 2 3
M  V30 3 1 3 4
M  V30 4 1 4 5
M  V30 5 1 4 6
M  V30 6 1 3 7
M  V30 7 1 7 8
M  V30 8 2 8 9
M  V30 9 1 8 10
M  V30 10 1 10 11
M  V30 11 1 11 12
M  V30 12 2 12 13
M  V30 13 1 12 14
M  V30 14 1 14 15
M  V30 15 1 14 16
M  V30 16 2 16 17
M  V30 17 1 17 18
M  V30 18 2 18 19
M  V30 19 1 19 20
M  V30 20 2 20 21
M  V30 21 1 20 22
M  V30 22 2 22 23
M  V30 23 2 22 24
M  V30 24 1 22 25
M  V30 25 1 3 26
M  V30 26 1 15 10
M  V30 27 1 21 16
M  V30 28 1 1 27
M  V30 29 1 1 28
M  V30 30 1 2 29
M  V30 31 1 2 30
M  V30 32 1 4 31
M  V30 33 1 5 32
M  V30 34 1 5 33
M  V30 35 1 5 34
M  V30 36 1 6 35
M  V30 37 1 6 36
M  V30 38 1 6 37
M  V30 39 1 7 38
M  V30 40 1 10 39
M  V30 41 1 11 40
M  V30 42 1 11 41
M  V30 43 1 15 42
M  V30 44 1 15 43
M  V30 45 1 17 44
M  V30 46 1 18 45
M  V30 47 1 19 46
M  V30 48 1 21 47
M  V30 49 1 25 48
M  V30 50 1 25 49
M  V30 51 1 26 50
M  V30 52 1 26 51
M  V30 53 1 26 52
M  V30 END BOND
M  V30 END CTAB
M  END
