
     RDKit          3D

  0  0  0  0  0  0  0  0  0  0999 V3000
M  V30 BEGIN CTAB
M  V30 COUNTS 21 21 0 0 0
M  V30 BEGIN ATOM
M  V30 1 Cl -4.50868 0.589531 0.0789121 0
M  V30 2 C -2.78449 0.989152 0.096895 0
M  V30 3 C -1.99284 -0.244179 -0.0349097 0
M  V30 4 O -2.58364 -1.34686 -0.13644 0
M  V30 5 C -0.520016 -0.235715 -0.0525703 0
M  V30 6 C 0.19217 0.934036 0.0540919 0
M  V30 7 C 1.56117 1.01646 0.0450417 0
M  V30 8 N 2.27679 2.22999 0.155977 0
M  V30 9 C 2.24664 -0.195293 -0.0833295 0
M  V30 10 C 1.57699 -1.3982 -0.1938 0
M  V30 11 C 0.19144 -1.40994 -0.177554 0
M  V30 12 N -0.456274 -2.65994 -0.292961 0
M  V30 13 I 4.34206 -0.130228 -0.103224 0
M  V30 14 H -2.48337 1.48972 1.05323 0
M  V30 15 H -2.55061 1.72826 -0.720417 0
M  V30 16 H -0.359339 1.85549 0.152081 0
M  V30 17 H 3.22104 2.27813 -0.263473 0
M  V30 18 H 1.89149 3.0511 0.63343 0
M  V30 19 H 2.12314 -2.32733 -0.292487 0
M  V30 20 H -0.490225 -3.16086 -1.21525 0
M  V30 21 H -0.893456 -3.0533 0.576848 0
M  V30 END ATOM
M  V30 BEGIN BOND
M  V30 1 1 1 2
M  V30 2 1 2 3
M  V30 3 2 3 4
M  V30 4 1 3 5
M  V30 5 2 5 6
M  V30 6 1 6 7
M  V30 7 1 7 8
M  V30 8 2 7 9
M  V30 9 1 9 10
M  V30 10 2 10 11
M  V30 11 1 11 12
M  V30 12 1 9 13
M  V30 13 1 11 5
M  V30 14 1 2 14
M  V30 15 1 2 15
M  V30 16 1 6 16
M  V30 17 1 8 17
M  V30 18 1 8 18
M  V30 19 1 10 19
M  V30 20 1 12 20
M  V30 21 1 12 21
M  V30 END BOND
M  V30 END CTAB
M  END
