
     RDKit          3D

  0  0  0  0  0  0  0  0  0  0999 V3000
M  V30 BEGIN CTAB
M  V30 COUNTS 22 22 0 0 0
M  V30 BEGIN ATOM
M  V30 1 N -3.20451 0.403162 -0.885725 0
M  V30 2 C -1.79848 0.180933 -1.03194 0
M  V30 3 C -1.07155 0.348435 0.319051 0
M  V30 4 C 0.34149 0.157152 0.174347 0
M  V30 5 C 0.913326 -1.05183 -0.214848 0
M  V30 6 C 2.29317 -1.19534 -0.268749 0
M  V30 7 C 3.14163 -0.129842 0.0595147 0
M  V30 8 C 2.56844 1.04632 0.450069 0
M  V30 9 C 1.203 1.20242 0.509357 0
M  V30 10 Cl 0.494687 2.76527 0.962413 0
M  V30 11 Br 5.04004 -0.303947 -0.00548269 0
M  V30 12 N -1.69627 -0.803756 1.13738 0
M  V30 13 H -3.72664 -0.468318 -0.721676 0
M  V30 14 H -3.46621 1.23273 -0.314269 0
M  V30 15 H -1.35646 0.955265 -1.73942 0
M  V30 16 H -1.5757 -0.810286 -1.40834 0
M  V30 17 H -1.37072 1.20012 0.90158 0
M  V30 18 H 0.26352 -1.92853 -0.454386 0
M  V30 19 H 2.69982 -2.12744 -0.53042 0
M  V30 20 H 3.18588 1.89578 0.707133 0
M  V30 21 H -1.83558 -1.60652 0.442457 0
M  V30 22 H -1.04288 -0.961778 1.91196 0
M  V30 END ATOM
M  V30 BEGIN BOND
M  V30 1 1 1 2
M  V30 2 1 2 3
M  V30 3 1 3 4
M  V30 4 2 4 5
M  V30 5 1 5 6
M  V30 6 2 6 7
M  V30 7 1 7 8
M  V30 8 2 8 9
M  V30 9 1 9 10
M  V30 10 1 7 11
M  V30 11 1 3 12
M  V30 12 1 9 4
M  V30 13 1 1 13
M  V30 14 1 1 14
M  V30 15 1 2 15
M  V30 16 1 2 16
M  V30 17 1 3 17
M  V30 18 1 5 18
M  V30 19 1 6 19
M  V30 20 1 8 20
M  V30 21 1 12 21
M  V30 22 1 12 22
M  V30 END BOND
M  V30 END CTAB
M  END
