
     RDKit          3D

  0  0  0  0  0  0  0  0  0  0999 V3000
M  V30 BEGIN CTAB
M  V30 COUNTS 55 59 0 0 0
M  V30 BEGIN ATOM
M  V30 1 C 4.49162 2.61786 -4.12356 0
M  V30 2 C 4.07821 1.67352 -3.05742 0
M  V30 3 N 4.78224 0.776735 -2.36915 0
M  V30 4 N 3.99367 0.140096 -1.49968 0
M  V30 5 C 2.75725 0.642751 -1.63662 0
M  V30 6 C 2.75502 1.61482 -2.60761 0
M  V30 7 C 1.57888 0.222722 -0.868457 0
M  V30 8 O 1.79027 -0.67983 -0.0288761 0
M  V30 9 N 0.358922 0.822691 -1.10745 0
M  V30 10 C -0.88142 0.562731 -0.486691 0
M  V30 11 C -1.10377 -0.491599 0.354823 0
M  V30 12 C -2.35959 -0.669475 0.937658 0
M  V30 13 C -3.41574 0.175633 0.70934 0
M  V30 14 C -3.17684 1.23244 -0.139097 0
M  V30 15 C -1.9628 1.43708 -0.726539 0
M  V30 16 C -4.68552 -0.0522256 1.3795 0
M  V30 17 C -5.79828 -0.494864 0.708793 0
M  V30 18 C -6.98428 -0.654019 1.43167 0
M  V30 19 C -7.06588 -0.385143 2.77356 0
M  V30 20 C -5.95174 0.0568977 3.44531 0
M  V30 21 C -4.7724 0.217835 2.73607 0
M  V30 22 S -5.79511 -0.899721 -0.980465 0
M  V30 23 N -7.38998 -1.48166 -1.41752 0
M  V30 24 O -5.53609 0.248398 -1.89344 0
M  V30 25 O -4.86109 -2.05821 -1.26649 0
M  V30 26 C 4.42627 -0.876691 -0.611218 0
M  V30 27 C 4.93082 -0.602082 0.640652 0
M  V30 28 C 5.3453 -1.63953 1.48255 0
M  V30 29 C 5.26135 -2.95582 1.08663 0
M  V30 30 O 5.7194 -3.7111 2.0748 0
M  V30 31 N 6.08183 -2.94467 3.05809 0
M  V30 32 C 5.87987 -1.65023 2.76436 0
M  V30 33 N 6.13375 -0.498245 3.54396 0
M  V30 34 C 4.75689 -3.22723 -0.164556 0
M  V30 35 C 4.35382 -2.2009 -0.980687 0
M  V30 36 H 4.39376 3.64417 -3.70017 0
M  V30 37 H 5.50716 2.44775 -4.48221 0
M  V30 38 H 3.72065 2.5507 -4.92125 0
M  V30 39 H 1.92235 2.21801 -2.9644 0
M  V30 40 H 0.347091 1.58555 -1.86493 0
M  V30 41 H -0.31524 -1.21163 0.579083 0
M  V30 42 H -2.47525 -1.53756 1.60652 0
M  V30 43 H -3.98256 1.96638 -0.346619 0
M  V30 44 H -1.81904 2.27934 -1.38653 0
M  V30 45 H -7.88631 -1.00097 0.938354 0
M  V30 46 H -7.9865 -0.506226 3.34604 0
M  V30 47 H -5.93511 0.287136 4.49008 0
M  V30 48 H -3.89403 0.563581 3.25288 0
M  V30 49 H -8.05743 -0.655566 -1.42035 0
M  V30 50 H -7.33467 -1.7797 -2.41904 0
M  V30 51 H 5.00601 0.421141 0.972237 0
M  V30 52 H 5.46076 0.29735 3.48742 0
M  V30 53 H 6.9688 -0.436959 4.16159 0
M  V30 54 H 4.67358 -4.24085 -0.514215 0
M  V30 55 H 3.95111 -2.39888 -1.97676 0
M  V30 END ATOM
M  V30 BEGIN BOND
M  V30 1 1 1 2
M  V30 2 2 2 3
M  V30 3 1 3 4
M  V30 4 1 4 5
M  V30 5 2 5 6
M  V30 6 1 5 7
M  V30 7 2 7 8
M  V30 8 1 7 9
M  V30 9 1 9 10
M  V30 10 2 10 11
M  V30 11 1 11 12
M  V30 12 2 12 13
M  V30 13 1 13 14
M  V30 14 2 14 15
M  V30 15 1 13 16
M  V30 16 2 16 17
M  V30 17 1 17 18
M  V30 18 2 18 19
M  V30 19 1 19 20
M  V30 20 2 20 21
M  V30 21 1 17 22
M  V30 22 1 22 23
M  V30 23 2 22 24
M  V30 24 2 22 25
M  V30 25 1 4 26
M  V30 26 2 26 27
M  V30 27 1 27 28
M  V30 28 2 28 29
M  V30 29 1 29 30
M  V30 30 1 30 31
M  V30 31 2 31 32
M  V30 32 1 32 33
M  V30 33 1 29 34
M  V30 34 2 34 35
M  V30 35 1 6 2
M  V30 36 1 15 10
M  V30 37 1 21 16
M  V30 38 1 35 26
M  V30 39 1 32 28
M  V30 40 1 1 36
M  V30 41 1 1 37
M  V30 42 1 1 38
M  V30 43 1 6 39
M  V30 44 1 9 40
M  V30 45 1 11 41
M  V30 46 1 12 42
M  V30 47 1 14 43
M  V30 48 1 15 44
M  V30 49 1 18 45
M  V30 50 1 19 46
M  V30 51 1 20 47
M  V30 52 1 21 48
M  V30 53 1 23 49
M  V30 54 1 23 50
M  V30 55 1 27 51
M  V30 56 1 33 52
M  V30 57 1 33 53
M  V30 58 1 34 54
M  V30 59 1 35 55
M  V30 END BOND
M  V30 END CTAB
M  END
