
     RDKit          3D

  0  0  0  0  0  0  0  0  0  0999 V3000
M  V30 BEGIN CTAB
M  V30 COUNTS 39 38 0 0 0
M  V30 BEGIN ATOM
M  V30 1 C 5.68307 1.092 0.719785 0
M  V30 2 C 4.7332 0.00509173 1.10673 0
M  V30 3 O 3.48694 0.0644626 0.47096 0
M  V30 4 C 3.36102 0.00125552 -0.918747 0
M  V30 5 O 4.43392 -0.110223 -1.56606 0
M  V30 6 C 2.01586 0.0644296 -1.57997 0
M  V30 7 C 1.01006 -0.746889 -0.794979 0
M  V30 8 C -0.329666 -0.654318 -1.48229 0
M  V30 9 C -1.40223 -1.4221 -0.792311 0
M  V30 10 C -1.72174 -1.04006 0.597861 0
M  V30 11 C -2.21451 0.339331 0.844805 0
M  V30 12 N -1.35239 1.40781 0.465929 0
M  V30 13 C -3.60947 0.62162 0.343998 0
M  V30 14 C -4.57158 -0.319262 1.02527 0
M  V30 15 N -3.74398 0.671495 -1.07746 0
M  V30 16 H 6.36595 1.39002 1.55927 0
M  V30 17 H 5.09851 2.01262 0.490605 0
M  V30 18 H 6.3519 0.798872 -0.130672 0
M  V30 19 H 4.52888 0.128129 2.20621 0
M  V30 20 H 5.26141 -0.963743 0.987601 0
M  V30 21 H 1.73836 1.11815 -1.71427 0
M  V30 22 H 2.17372 -0.346802 -2.60074 0
M  V30 23 H 1.34053 -1.81281 -0.800097 0
M  V30 24 H 1.03954 -0.420836 0.236915 0
M  V30 25 H -0.172292 -1.18506 -2.47355 0
M  V30 26 H -0.555526 0.371683 -1.75594 0
M  V30 27 H -2.30007 -1.41373 -1.44621 0
M  V30 28 H -1.04255 -2.4971 -0.766059 0
M  V30 29 H -0.892724 -1.27789 1.30505 0
M  V30 30 H -2.55342 -1.73059 0.940069 0
M  V30 31 H -2.32036 0.419577 1.98316 0
M  V30 32 H -1.23704 2.09178 1.26142 0
M  V30 33 H -1.70453 1.93201 -0.367635 0
M  V30 34 H -3.85584 1.64484 0.765736 0
M  V30 35 H -4.57131 -1.27591 0.480361 0
M  V30 36 H -4.22863 -0.496963 2.06814 0
M  V30 37 H -5.59452 0.103999 1.07096 0
M  V30 38 H -4.36761 -0.111976 -1.44108 0
M  V30 39 H -4.28092 1.54709 -1.358 0
M  V30 END ATOM
M  V30 BEGIN BOND
M  V30 1 1 1 2
M  V30 2 1 2 3
M  V30 3 1 3 4
M  V30 4 2 4 5
M  V30 5 1 4 6
M  V30 6 1 6 7
M  V30 7 1 7 8
M  V30 8 1 8 9
M  V30 9 1 9 10
M  V30 10 1 10 11
M  V30 11 1 11 12
M  V30 12 1 11 13
M  V30 13 1 13 14
M  V30 14 1 13 15
M  V30 15 1 1 16
M  V30 16 1 1 17
M  V30 17 1 1 18
M  V30 18 1 2 19
M  V30 19 1 2 20
M  V30 20 1 6 21
M  V30 21 1 6 22
M  V30 22 1 7 23
M  V30 23 1 7 24
M  V30 24 1 8 25
M  V30 25 1 8 26
M  V30 26 1 9 27
M  V30 27 1 9 28
M  V30 28 1 10 29
M  V30 29 1 10 30
M  V30 30 1 11 31
M  V30 31 1 12 32
M  V30 32 1 12 33
M  V30 33 1 13 34
M  V30 34 1 14 35
M  V30 35 1 14 36
M  V30 36 1 14 37
M  V30 37 1 15 38
M  V30 38 1 15 39
M  V30 END BOND
M  V30 END CTAB
M  END
