
     RDKit          3D

  0  0  0  0  0  0  0  0  0  0999 V3000
M  V30 BEGIN CTAB
M  V30 COUNTS 14 13 0 0 0
M  V30 BEGIN ATOM
M  V30 1 C 2.53113 -0.0255092 -0.0743012 0
M  V30 2 C 1.13966 0.430822 -0.376768 0
M  V30 3 O 0.990638 1.65244 -0.621916 0
M  V30 4 N 0.0858163 -0.497899 -0.374657 0
M  V30 5 C -1.14424 -0.242334 -0.168458 0
M  V30 6 N -1.68471 1.02703 0.0981192 0
M  V30 7 N -2.05459 -1.3515 -0.213299 0
M  V30 8 H 3.14469 -0.0375711 -0.997641 0
M  V30 9 H 2.53739 -1.03913 0.365509 0
M  V30 10 H 3.02478 0.646745 0.672413 0
M  V30 11 H -1.52794 1.47189 1.01665 0
M  V30 12 H -2.24194 1.5301 -0.613831 0
M  V30 13 H -2.84296 -1.46236 0.459354 0
M  V30 14 H -1.95771 -2.10274 -0.936428 0
M  V30 END ATOM
M  V30 BEGIN BOND
M  V30 1 1 1 2
M  V30 2 2 2 3
M  V30 3 1 2 4
M  V30 4 2 4 5
M  V30 5 1 5 6
M  V30 6 1 5 7
M  V30 7 1 1 8
M  V30 8 1 1 9
M  V30 9 1 1 10
M  V30 10 1 6 11
M  V30 11 1 6 12
M  V30 12 1 7 13
M  V30 13 1 7 14
M  V30 END BOND
M  V30 END CTAB
M  END
