
     RDKit          3D

  0  0  0  0  0  0  0  0  0  0999 V3000
M  V30 BEGIN CTAB
M  V30 COUNTS 31 33 0 0 0
M  V30 BEGIN ATOM
M  V30 1 N -5.46824 1.41797 0.69201 0
M  V30 2 C -4.38671 1.04143 0.530556 0
M  V30 3 C -3.04942 0.576801 0.321269 0
M  V30 4 C -1.99766 1.45096 0.502297 0
M  V30 5 N -2.30931 2.79768 0.895417 0
M  V30 6 N -0.731762 1.06779 0.321931 0
M  V30 7 C -0.397931 -0.201063 -0.0497009 0
M  V30 8 C -1.42391 -1.09146 -0.236742 0
M  V30 9 C -2.76153 -0.709461 -0.0529426 0
M  V30 10 N -3.83878 -1.60854 -0.239591 0
M  V30 11 C -0.850805 -2.39015 -0.626319 0
M  V30 12 C 0.600637 -2.14697 -0.6576 0
M  V30 13 O 1.54272 -2.94393 -0.946653 0
M  V30 14 N 0.869783 -0.800556 -0.296241 0
M  V30 15 C 2.13714 -0.165414 -0.192686 0
M  V30 16 C 3.10415 -0.331083 -1.13241 0
M  V30 17 C 4.33672 0.293629 -1.02615 0
M  V30 18 C 4.60478 1.11101 0.059847 0
M  V30 19 C 3.61836 1.29109 1.03522 0
M  V30 20 C 2.41648 0.652273 0.885291 0
M  V30 21 Cl 6.12211 1.93944 0.286187 0
M  V30 22 H -2.81192 3.41153 0.217585 0
M  V30 23 H -2.03854 3.15464 1.83935 0
M  V30 24 H -4.41718 -1.91325 0.58143 0
M  V30 25 H -4.05729 -1.97134 -1.19965 0
M  V30 26 H -1.26638 -2.80339 -1.56982 0
M  V30 27 H -1.03442 -3.08662 0.233821 0
M  V30 28 H 2.9232 -0.960141 -1.98564 0
M  V30 29 H 5.10075 0.163427 -1.76672 0
M  V30 30 H 3.79438 1.92789 1.90095 0
M  V30 31 H 1.67058 0.825808 1.67571 0
M  V30 END ATOM
M  V30 BEGIN BOND
M  V30 1 3 1 2
M  V30 2 1 2 3
M  V30 3 2 3 4
M  V30 4 1 4 5
M  V30 5 1 4 6
M  V30 6 2 6 7
M  V30 7 1 7 8
M  V30 8 2 8 9
M  V30 9 1 9 10
M  V30 10 1 8 11
M  V30 11 1 11 12
M  V30 12 2 12 13
M  V30 13 1 12 14
M  V30 14 1 14 15
M  V30 15 2 15 16
M  V30 16 1 16 17
M  V30 17 2 17 18
M  V30 18 1 18 19
M  V30 19 2 19 20
M  V30 20 1 18 21
M  V30 21 1 9 3
M  V30 22 1 20 15
M  V30 23 1 14 7
M  V30 24 1 5 22
M  V30 25 1 5 23
M  V30 26 1 10 24
M  V30 27 1 10 25
M  V30 28 1 11 26
M  V30 29 1 11 27
M  V30 30 1 16 28
M  V30 31 1 17 29
M  V30 32 1 19 30
M  V30 33 1 20 31
M  V30 END BOND
M  V30 END CTAB
M  END
