
     RDKit          3D

  0  0  0  0  0  0  0  0  0  0999 V3000
M  V30 BEGIN CTAB
M  V30 COUNTS 24 25 0 0 0
M  V30 BEGIN ATOM
M  V30 1 N -3.41972 -1.38904 -0.912402 0
M  V30 2 N -2.53301 -1.45919 0.130682 0
M  V30 3 C -1.14478 -1.24859 -0.00863173 0
M  V30 4 N -0.24694 -2.2425 -0.173325 0
M  V30 5 N 1.04084 -2.02352 -0.307063 0
M  V30 6 C 1.52934 -0.796493 -0.287106 0
M  V30 7 N 2.91869 -0.565146 -0.443135 0
M  V30 8 N 3.8585 -1.09019 0.42742 0
M  V30 9 C 0.658788 0.284925 -0.120799 0
M  V30 10 C -0.674267 0.0303252 0.0157829 0
M  V30 11 C -1.5773 1.08453 0.177051 0
M  V30 12 C -1.06898 2.3638 0.190915 0
M  V30 13 C 0.282961 2.64027 0.052811 0
M  V30 14 C 1.13511 1.5698 -0.102794 0
M  V30 15 H -3.12028 -1.66387 -1.83804 0
M  V30 16 H -4.39683 -1.22627 -0.705197 0
M  V30 17 H -2.88596 -1.68324 1.08688 0
M  V30 18 H 3.234 0.0165997 -1.23517 0
M  V30 19 H 3.45279 -1.71289 1.15919 0
M  V30 20 H 4.45908 -0.38636 0.879844 0
M  V30 21 H -2.62606 0.854321 0.283317 0
M  V30 22 H -1.74312 3.21258 0.318675 0
M  V30 23 H 0.656909 3.67416 0.064855 0
M  V30 24 H 2.21025 1.75598 -0.215866 0
M  V30 END ATOM
M  V30 BEGIN BOND
M  V30 1 1 1 2
M  V30 2 1 2 3
M  V30 3 2 3 4
M  V30 4 1 4 5
M  V30 5 2 5 6
M  V30 6 1 6 7
M  V30 7 1 7 8
M  V30 8 1 6 9
M  V30 9 2 9 10
M  V30 10 1 10 11
M  V30 11 2 11 12
M  V30 12 1 12 13
M  V30 13 2 13 14
M  V30 14 1 10 3
M  V30 15 1 14 9
M  V30 16 1 1 15
M  V30 17 1 1 16
M  V30 18 1 2 17
M  V30 19 1 7 18
M  V30 20 1 8 19
M  V30 21 1 8 20
M  V30 22 1 11 21
M  V30 23 1 12 22
M  V30 24 1 13 23
M  V30 25 1 14 24
M  V30 END BOND
M  V30 END CTAB
M  END
