
     RDKit          3D

  0  0  0  0  0  0  0  0  0  0999 V3000
M  V30 BEGIN CTAB
M  V30 COUNTS 53 55 0 0 0
M  V30 BEGIN ATOM
M  V30 1 C -6.88193 0.269722 -1.49048 0
M  V30 2 C -7.9789 0.479161 -0.486797 0
M  V30 3 C -7.96551 -0.429015 0.647912 0
M  V30 4 C -6.97066 -0.479123 1.70445 0
M  V30 5 O -5.62815 -0.617615 1.52274 0
M  V30 6 C -4.66496 0.290718 1.19113 0
M  V30 7 O -5.0028 1.50001 1.03842 0
M  V30 8 C -3.24696 -0.0998997 1.00718 0
M  V30 9 C -2.80338 -1.39234 1.15574 0
M  V30 10 C -1.46242 -1.72123 0.974621 0
M  V30 11 C -0.530797 -0.762783 0.639729 0
M  V30 12 N 0.840339 -1.12167 0.458495 0
M  V30 13 C 1.79054 -0.115357 0.111883 0
M  V30 14 C 3.16998 -0.566985 -0.0553974 0
M  V30 15 C 4.12166 0.421727 -0.397584 0
M  V30 16 C 3.71652 1.82248 -0.561092 0
M  V30 17 C 5.41726 -0.0298442 -0.553251 0
M  V30 18 C 5.79023 -1.36579 -0.389571 0
M  V30 19 C 4.83033 -2.27216 -0.0598947 0
M  V30 20 C 3.51735 -1.88711 0.110128 0
M  V30 21 N 7.08028 -1.7451 -0.557256 0
M  V30 22 C 8.04707 -0.886696 -0.880775 0
M  V30 23 N 9.4154 -1.32739 -1.05191 0
M  V30 24 N 7.70666 0.388452 -1.04008 0
M  V30 25 C 6.41767 0.831352 -0.883604 0
M  V30 26 N 6.14238 2.20138 -1.07585 0
M  V30 27 C -0.972041 0.534513 0.489894 0
M  V30 28 C -2.31176 0.852114 0.672782 0
M  V30 29 H -6.32178 -0.662768 -1.26265 0
M  V30 30 H -6.19459 1.13871 -1.52582 0
M  V30 31 H -7.30916 0.120045 -2.53115 0
M  V30 32 H -8.94961 0.290936 -1.05376 0
M  V30 33 H -8.05378 1.57062 -0.20648 0
M  V30 34 H -9.0258 -0.3835 1.12327 0
M  V30 35 H -8.02317 -1.49678 0.196491 0
M  V30 36 H -7.25821 -1.33298 2.44308 0
M  V30 37 H -7.18952 0.434373 2.39532 0
M  V30 38 H -3.534 -2.14434 1.41844 0
M  V30 39 H -1.19095 -2.75892 1.109 0
M  V30 40 H 1.0978 -2.09317 0.5838 0
M  V30 41 H 1.69444 0.639105 0.961637 0
M  V30 42 H 1.43058 0.334087 -0.848709 0
M  V30 43 H 3.67747 2.22479 -1.57335 0
M  V30 44 H 2.59368 1.83855 -0.325866 0
M  V30 45 H 4.02335 2.51508 0.254885 0
M  V30 46 H 5.13724 -3.32284 0.0664599 0
M  V30 47 H 2.85549 -2.69074 0.368191 0
M  V30 48 H 9.90623 -1.80231 -0.262594 0
M  V30 49 H 9.87854 -1.15321 -1.97797 0
M  V30 50 H 5.89718 2.49401 -2.05516 0
M  V30 51 H 6.19406 2.89115 -0.319256 0
M  V30 52 H -0.265412 1.30263 0.228638 0
M  V30 53 H -2.65349 1.88381 0.551984 0
M  V30 END ATOM
M  V30 BEGIN BOND
M  V30 1 1 1 2
M  V30 2 1 2 3
M  V30 3 1 3 4
M  V30 4 1 4 5
M  V30 5 1 5 6
M  V30 6 2 6 7
M  V30 7 1 6 8
M  V30 8 2 8 9
M  V30 9 1 9 10
M  V30 10 2 10 11
M  V30 11 1 11 12
M  V30 12 1 12 13
M  V30 13 1 13 14
M  V30 14 2 14 15
M  V30 15 1 15 16
M  V30 16 1 15 17
M  V30 17 2 17 18
M  V30 18 1 18 19
M  V30 19 2 19 20
M  V30 20 1 18 21
M  V30 21 2 21 22
M  V30 22 1 22 23
M  V30 23 1 22 24
M  V30 24 2 24 25
M  V30 25 1 25 26
M  V30 26 1 11 27
M  V30 27 2 27 28
M  V30 28 1 28 8
M  V30 29 1 20 14
M  V30 30 1 25 17
M  V30 31 1 1 29
M  V30 32 1 1 30
M  V30 33 1 1 31
M  V30 34 1 2 32
M  V30 35 1 2 33
M  V30 36 1 3 34
M  V30 37 1 3 35
M  V30 38 1 4 36
M  V30 39 1 4 37
M  V30 40 1 9 38
M  V30 41 1 10 39
M  V30 42 1 12 40
M  V30 43 1 13 41
M  V30 44 1 13 42
M  V30 45 1 16 43
M  V30 46 1 16 44
M  V30 47 1 16 45
M  V30 48 1 19 46
M  V30 49 1 20 47
M  V30 50 1 23 48
M  V30 51 1 23 49
M  V30 52 1 26 50
M  V30 53 1 26 51
M  V30 54 1 27 52
M  V30 55 1 28 53
M  V30 END BOND
M  V30 END CTAB
M  END
