
     RDKit          3D

  0  0  0  0  0  0  0  0  0  0999 V3000
M  V30 BEGIN CTAB
M  V30 COUNTS 34 35 0 0 0
M  V30 BEGIN ATOM
M  V30 1 N -6.56475 1.47098 0.46023 0
M  V30 2 C -5.63783 0.639144 1.10254 0
M  V30 3 N -4.83433 1.11106 1.98787 0
M  V30 4 N -5.57812 -0.732295 0.782532 0
M  V30 5 C -4.41421 -1.34256 0.244462 0
M  V30 6 N -3.24589 -0.706706 -0.0258369 0
M  V30 7 C -2.37444 -1.59189 -0.521491 0
M  V30 8 C -0.975585 -1.32642 -0.952464 0
M  V30 9 S 0.170685 -1.55709 0.431936 0
M  V30 10 C 1.83845 -1.22541 -0.150244 0
M  V30 11 C 2.05032 0.222597 -0.539439 0
M  V30 12 N 3.41419 0.36629 -0.985623 0
M  V30 13 C 4.54639 0.241182 -0.0897411 0
M  V30 14 N 5.03597 -0.911263 0.135018 0
M  V30 15 S 6.35765 -0.638252 1.24353 0
M  V30 16 O 7.68797 -1.03702 0.67475 0
M  V30 17 N 6.14922 1.09533 1.33155 0
M  V30 18 C 5.15383 1.35665 0.565764 0
M  V30 19 N 4.71709 2.731 0.416953 0
M  V30 20 N -3.02861 -2.76968 -0.547759 0
M  V30 21 O -4.23092 -2.59108 -0.0895086 0
M  V30 22 H -6.43693 2.48111 0.273385 0
M  V30 23 H -7.47129 1.03967 0.13759 0
M  V30 24 H -4.88529 2.11622 2.21651 0
M  V30 25 H -6.41926 -1.3108 0.947924 0
M  V30 26 H -0.919472 -0.250043 -1.23899 0
M  V30 27 H -0.757868 -2.01385 -1.77342 0
M  V30 28 H 2.04597 -1.89343 -1.0022 0
M  V30 29 H 2.55544 -1.43214 0.686433 0
M  V30 30 H 1.4077 0.509579 -1.39612 0
M  V30 31 H 1.86754 0.899591 0.296024 0
M  V30 32 H 3.68043 0.569436 -1.97618 0
M  V30 33 H 4.21179 3.02212 -0.445278 0
M  V30 34 H 4.88418 3.45798 1.13796 0
M  V30 END ATOM
M  V30 BEGIN BOND
M  V30 1 1 1 2
M  V30 2 2 2 3 CFG=2
M  V30 3 1 2 4
M  V30 4 1 4 5
M  V30 5 2 5 6
M  V30 6 1 6 7
M  V30 7 1 7 8
M  V30 8 1 8 9
M  V30 9 1 9 10
M  V30 10 1 10 11
M  V30 11 1 11 12
M  V30 12 1 12 13
M  V30 13 2 13 14
M  V30 14 1 14 15
M  V30 15 2 15 16
M  V30 16 1 15 17
M  V30 17 2 17 18
M  V30 18 1 18 19
M  V30 19 2 7 20
M  V30 20 1 20 21
M  V30 21 1 21 5
M  V30 22 1 18 13
M  V30 23 1 1 22
M  V30 24 1 1 23
M  V30 25 1 3 24
M  V30 26 1 4 25
M  V30 27 1 8 26
M  V30 28 1 8 27
M  V30 29 1 10 28
M  V30 30 1 10 29
M  V30 31 1 11 30
M  V30 32 1 11 31
M  V30 33 1 12 32
M  V30 34 1 19 33
M  V30 35 1 19 34
M  V30 END BOND
M  V30 END CTAB
M  END
