
     RDKit          3D

  0  0  0  0  0  0  0  0  0  0999 V3000
M  V30 BEGIN CTAB
M  V30 COUNTS 14 14 0 0 0
M  V30 BEGIN ATOM
M  V30 1 N 2.7102 -0.813988 0.0454911 0
M  V30 2 C 1.42943 -0.221632 0.0137976 0
M  V30 3 N 1.2646 1.12654 -0.052382 0
M  V30 4 C 0.0505902 1.69323 -0.0826947 0
M  V30 5 Cl -0.148315 3.43481 -0.168183 0
M  V30 6 C -1.09049 0.922264 -0.0475439 0
M  V30 7 Cl -2.67173 1.68832 -0.088388 0
M  V30 8 C -0.940959 -0.447429 0.0196521 0
M  V30 9 N -2.11627 -1.24992 0.0562733 0
M  V30 10 N 0.28983 -0.957637 0.0472459 0
M  V30 11 H 3.41658 -0.538682 -0.648676 0
M  V30 12 H 2.93523 -1.5181 0.760399 0
M  V30 13 H -2.95866 -1.02212 -0.52028 0
M  V30 14 H -2.17004 -2.09565 0.665288 0
M  V30 END ATOM
M  V30 BEGIN BOND
M  V30 1 1 1 2
M  V30 2 2 2 3
M  V30 3 1 3 4
M  V30 4 1 4 5
M  V30 5 2 4 6
M  V30 6 1 6 7
M  V30 7 1 6 8
M  V30 8 1 8 9
M  V30 9 2 8 10
M  V30 10 1 10 2
M  V30 11 1 1 11
M  V30 12 1 1 12
M  V30 13 1 9 13
M  V30 14 1 9 14
M  V30 END BOND
M  V30 END CTAB
M  END
