
     RDKit          3D

  0  0  0  0  0  0  0  0  0  0999 V3000
M  V30 BEGIN CTAB
M  V30 COUNTS 27 26 0 0 0
M  V30 BEGIN ATOM
M  V30 1 C 4.66203 0.743227 0.558064 0
M  V30 2 C 3.63496 0.190272 -0.40445 0
M  V30 3 O 2.39745 -0.0245606 0.281566 0
M  V30 4 C 1.28452 -0.529029 -0.374256 0
M  V30 5 O 1.40541 -0.791058 -1.59856 0
M  V30 6 C -0.00359802 -0.76085 0.306312 0
M  V30 7 C -1.14177 0.00554993 -0.366079 0
M  V30 8 C -2.39609 -0.310001 0.414372 0
M  V30 9 S -3.8158 0.509363 -0.245161 0
M  V30 10 O -5.01046 0.0528219 0.545307 0
M  V30 11 O -3.73129 1.98957 -0.11872 0
M  V30 12 N -4.07448 0.0191792 -1.88227 0
M  V30 13 N 0.0413603 -0.40746 1.69561 0
M  V30 14 H 5.38518 1.41807 0.0514258 0
M  V30 15 H 5.24611 -0.0646074 1.05254 0
M  V30 16 H 4.13202 1.35905 1.32061 0
M  V30 17 H 3.47368 0.86854 -1.27627 0
M  V30 18 H 4.04205 -0.755937 -0.818605 0
M  V30 19 H -0.280641 -1.83118 0.232932 0
M  V30 20 H -1.22162 -0.205442 -1.43364 0
M  V30 21 H -0.943198 1.10281 -0.215897 0
M  V30 22 H -2.56296 -1.39687 0.361025 0
M  V30 23 H -2.22989 0.0506036 1.4543 0
M  V30 24 H -3.21531 0.0828017 -2.45478 0
M  V30 25 H -4.41702 -0.95605 -1.8755 0
M  V30 26 H -0.0210343 0.611342 1.83094 0
M  V30 27 H -0.639596 -0.970161 2.22537 0
M  V30 END ATOM
M  V30 BEGIN BOND
M  V30 1 1 1 2
M  V30 2 1 2 3
M  V30 3 1 3 4
M  V30 4 2 4 5
M  V30 5 1 4 6
M  V30 6 1 6 7
M  V30 7 1 7 8
M  V30 8 1 8 9
M  V30 9 2 9 10
M  V30 10 2 9 11
M  V30 11 1 9 12
M  V30 12 1 6 13
M  V30 13 1 1 14
M  V30 14 1 1 15
M  V30 15 1 1 16
M  V30 16 1 2 17
M  V30 17 1 2 18
M  V30 18 1 6 19
M  V30 19 1 7 20
M  V30 20 1 7 21
M  V30 21 1 8 22
M  V30 22 1 8 23
M  V30 23 1 12 24
M  V30 24 1 12 25
M  V30 25 1 13 26
M  V30 26 1 13 27
M  V30 END BOND
M  V30 END CTAB
M  END
