
     RDKit          3D

  0  0  0  0  0  0  0  0  0  0999 V3000
M  V30 BEGIN CTAB
M  V30 COUNTS 45 46 0 0 0
M  V30 BEGIN ATOM
M  V30 1 C -4.59577 -2.13044 2.63718 0
M  V30 2 O -3.57773 -2.64152 1.83565 0
M  V30 3 C -2.84149 -2.01821 0.866153 0
M  V30 4 C -3.00615 -0.705445 0.44995 0
M  V30 5 C -2.23257 -0.133662 -0.528649 0
M  V30 6 C -1.25305 -0.925354 -1.10437 0
M  V30 7 C -1.07945 -2.24208 -0.694282 0
M  V30 8 C -1.84713 -2.82182 0.279202 0
M  V30 9 O -1.69898 -4.13284 0.706474 0
M  V30 10 C -0.722895 -4.98159 0.153066 0
M  V30 11 C -2.49249 1.24743 -1.01031 0
M  V30 12 C -1.43997 1.80202 -1.87825 0
M  V30 13 C -0.144215 1.94653 -1.18278 0
M  V30 14 O -0.214597 1.97712 0.0844804 0
M  V30 15 N 1.07268 2.04438 -1.86854 0
M  V30 16 C 2.35156 2.22459 -1.23305 0
M  V30 17 C 2.70958 1.09169 -0.305233 0
M  V30 18 C 4.04477 1.37979 0.314708 0
M  V30 19 N 5.27434 1.08594 -0.077834 0
M  V30 20 N 6.26826 1.43135 0.615807 0
M  V30 21 C 6.08696 2.09644 1.75172 0
M  V30 22 S 4.36889 2.21003 1.78484 0
M  V30 23 N 7.05786 2.58319 2.68974 0
M  V30 24 N -3.85155 1.39257 -1.45895 0
M  V30 25 H -4.11102 -1.76496 3.58665 0
M  V30 26 H -5.37238 -2.88324 2.88114 0
M  V30 27 H -5.04959 -1.28224 2.0685 0
M  V30 28 H -3.78523 -0.126286 0.930657 0
M  V30 29 H -0.637444 -0.522978 -1.86931 0
M  V30 30 H -0.295754 -2.8553 -1.16106 0
M  V30 31 H 0.169408 -4.90465 0.826832 0
M  V30 32 H -0.500182 -4.8249 -0.902462 0
M  V30 33 H -1.02666 -6.06341 0.23663 0
M  V30 34 H -2.45412 1.86931 -0.0475393 0
M  V30 35 H -1.2327 1.22896 -2.80187 0
M  V30 36 H -1.79323 2.81063 -2.23625 0
M  V30 37 H 1.01643 1.97706 -2.93491 0
M  V30 38 H 3.16038 2.46838 -1.94377 0
M  V30 39 H 2.23935 3.14665 -0.589934 0
M  V30 40 H 1.97271 0.995342 0.486225 0
M  V30 41 H 2.74747 0.113308 -0.859441 0
M  V30 42 H 6.90842 3.46481 3.21576 0
M  V30 43 H 7.93638 2.05409 2.85966 0
M  V30 44 H -4.03394 0.918782 -2.37 0
M  V30 45 H -4.09514 2.40052 -1.5406 0
M  V30 END ATOM
M  V30 BEGIN BOND
M  V30 1 1 1 2
M  V30 2 1 2 3
M  V30 3 2 3 4
M  V30 4 1 4 5
M  V30 5 2 5 6
M  V30 6 1 6 7
M  V30 7 2 7 8
M  V30 8 1 8 9
M  V30 9 1 9 10
M  V30 10 1 5 11
M  V30 11 1 11 12
M  V30 12 1 12 13
M  V30 13 2 13 14
M  V30 14 1 13 15
M  V30 15 1 15 16
M  V30 16 1 16 17
M  V30 17 1 17 18
M  V30 18 2 18 19
M  V30 19 1 19 20
M  V30 20 2 20 21
M  V30 21 1 21 22
M  V30 22 1 21 23
M  V30 23 1 11 24
M  V30 24 1 8 3
M  V30 25 1 22 18
M  V30 26 1 1 25
M  V30 27 1 1 26
M  V30 28 1 1 27
M  V30 29 1 4 28
M  V30 30 1 6 29
M  V30 31 1 7 30
M  V30 32 1 10 31
M  V30 33 1 10 32
M  V30 34 1 10 33
M  V30 35 1 11 34
M  V30 36 1 12 35
M  V30 37 1 12 36
M  V30 38 1 15 37
M  V30 39 1 16 38
M  V30 40 1 16 39
M  V30 41 1 17 40
M  V30 42 1 17 41
M  V30 43 1 23 42
M  V30 44 1 23 43
M  V30 45 1 24 44
M  V30 46 1 24 45
M  V30 END BOND
M  V30 END CTAB
M  END
