
     RDKit          3D

  0  0  0  0  0  0  0  0  0  0999 V3000
M  V30 BEGIN CTAB
M  V30 COUNTS 47 49 0 0 0
M  V30 BEGIN ATOM
M  V30 1 C -2.1461 4.26363 -0.601957 0
M  V30 2 C -1.01408 4.0177 0.376165 0
M  V30 3 C -1.04689 2.54212 0.730716 0
M  V30 4 C -0.847555 1.72425 -0.486135 0
M  V30 5 N -0.876063 0.269427 -0.116013 0
M  V30 6 C -2.16636 -0.133168 0.231227 0
M  V30 7 C -2.65869 -1.47776 0.338019 0
M  V30 8 C -3.10926 -2.18673 -0.791661 0
M  V30 9 C -3.63525 -3.45103 -0.710977 0
M  V30 10 Cl -4.18677 -4.31149 -2.14905 0
M  V30 11 C -3.72265 -4.04303 0.5302 0
M  V30 12 Cl -4.40147 -5.67044 0.595277 0
M  V30 13 C -3.29762 -3.40369 1.69143 0
M  V30 14 C -2.7749 -2.13025 1.55409 0
M  V30 15 C 0.367837 -0.357995 -0.122125 0
M  V30 16 C 1.54716 0.427207 -0.165826 0
M  V30 17 C 2.78391 -0.12675 -0.210212 0
M  V30 18 C 2.96133 -1.4906 -0.213003 0
M  V30 19 C 1.83276 -2.26996 -0.169526 0
M  V30 20 C 0.565744 -1.71092 -0.125176 0
M  V30 21 N 4.19549 -2.03232 -0.264221 0
M  V30 22 C 5.25345 -1.20387 -0.312422 0
M  V30 23 N 6.58936 -1.65524 -0.375537 0
M  V30 24 N 5.0944 0.146045 -0.309629 0
M  V30 25 C 3.89266 0.70266 -0.260128 0
M  V30 26 N 3.6663 2.10346 -0.257107 0
M  V30 27 H -2.97247 3.52106 -0.429619 0
M  V30 28 H -1.82452 4.22947 -1.64474 0
M  V30 29 H -2.61198 5.25264 -0.321463 0
M  V30 30 H -1.13451 4.62586 1.29305 0
M  V30 31 H -0.0299921 4.28336 -0.0495432 0
M  V30 32 H -2.08085 2.37263 1.11975 0
M  V30 33 H -0.362305 2.34192 1.56521 0
M  V30 34 H -1.80371 1.88501 -1.10561 0
M  V30 35 H -0.0593637 1.97404 -1.17091 0
M  V30 36 H -2.95557 0.390394 -0.456647 0
M  V30 37 H -2.47598 0.428268 1.2234 0
M  V30 38 H -3.04005 -1.71836 -1.77741 0
M  V30 39 H -3.37406 -3.8803 2.65727 0
M  V30 40 H -2.45526 -1.65979 2.48543 0
M  V30 41 H 1.43693 1.5133 -0.13945 0
M  V30 42 H 1.92491 -3.34827 -0.168744 0
M  V30 43 H -0.286186 -2.40996 -0.0935282 0
M  V30 44 H 7.01978 -1.8012 -1.30423 0
M  V30 45 H 7.11027 -1.83337 0.494262 0
M  V30 46 H 4.02113 2.75653 0.449266 0
M  V30 47 H 3.08703 2.53551 -1.03218 0
M  V30 END ATOM
M  V30 BEGIN BOND
M  V30 1 1 1 2
M  V30 2 1 2 3
M  V30 3 1 3 4
M  V30 4 1 4 5
M  V30 5 1 5 6
M  V30 6 1 6 7
M  V30 7 2 7 8
M  V30 8 1 8 9
M  V30 9 1 9 10
M  V30 10 2 9 11
M  V30 11 1 11 12
M  V30 12 1 11 13
M  V30 13 2 13 14
M  V30 14 1 5 15
M  V30 15 2 15 16
M  V30 16 1 16 17
M  V30 17 2 17 18
M  V30 18 1 18 19
M  V30 19 2 19 20
M  V30 20 1 18 21
M  V30 21 2 21 22
M  V30 22 1 22 23
M  V30 23 1 22 24
M  V30 24 2 24 25
M  V30 25 1 25 26
M  V30 26 1 14 7
M  V30 27 1 20 15
M  V30 28 1 25 17
M  V30 29 1 1 27
M  V30 30 1 1 28
M  V30 31 1 1 29
M  V30 32 1 2 30
M  V30 33 1 2 31
M  V30 34 1 3 32
M  V30 35 1 3 33
M  V30 36 1 4 34
M  V30 37 1 4 35
M  V30 38 1 6 36
M  V30 39 1 6 37
M  V30 40 1 8 38
M  V30 41 1 13 39
M  V30 42 1 14 40
M  V30 43 1 16 41
M  V30 44 1 19 42
M  V30 45 1 20 43
M  V30 46 1 23 44
M  V30 47 1 23 45
M  V30 48 1 26 46
M  V30 49 1 26 47
M  V30 END BOND
M  V30 END CTAB
M  END
