
     RDKit          3D

  0  0  0  0  0  0  0  0  0  0999 V3000
M  V30 BEGIN CTAB
M  V30 COUNTS 50 51 0 0 0
M  V30 BEGIN ATOM
M  V30 1 C -6.18709 -0.230587 -0.11526 0
M  V30 2 C -4.70211 -0.157509 -0.0129513 0
M  V30 3 C -4.01451 -0.691238 1.04649 0
M  V30 4 C -2.64426 -0.600233 1.08341 0
M  V30 5 C -1.95361 -1.27206 2.25124 0
M  V30 6 C -1.87311 0.014574 0.095963 0
M  V30 7 C -0.449425 0.222975 0.245294 0 CFG=2
M  V30 8 N 0.00942699 1.59104 0.102129 0
M  V30 9 C 0.509564 -0.824654 -0.262139 0 CFG=1
M  V30 10 N 0.355035 -1.17392 -1.66201 0
M  V30 11 C 1.91011 -0.310313 -0.0413579 0
M  V30 12 C 2.54353 -0.664667 1.13275 0
M  V30 13 C 1.95651 -1.41544 2.24844 0
M  V30 14 C 3.87254 -0.2636 1.34579 0
M  V30 15 C 4.57226 0.473075 0.425125 0
M  V30 16 C 5.97542 0.939337 0.648169 0
M  V30 17 C 3.92746 0.813318 -0.740001 0
M  V30 18 C 2.6009 0.418285 -0.968072 0
M  V30 19 C 2.07874 0.727785 -2.32201 0
M  V30 20 C -2.58301 0.557816 -0.97413 0
M  V30 21 C -1.9701 1.35653 -2.03078 0
M  V30 22 C -3.98686 0.458273 -1.00904 0
M  V30 23 H -6.50419 -0.967866 -0.870064 0
M  V30 24 H -6.54768 0.794634 -0.399794 0
M  V30 25 H -6.58936 -0.456618 0.886697 0
M  V30 26 H -4.5786 -1.18537 1.84679 0
M  V30 27 H -2.75254 -1.69259 2.94053 0
M  V30 28 H -1.38682 -2.17571 1.89286 0
M  V30 29 H -1.38565 -0.597569 2.8859 0
M  V30 30 H -0.294435 0.112849 1.40273 0
M  V30 31 H 0.894246 1.70126 0.596173 0
M  V30 32 H -0.707241 2.18662 0.541602 0
M  V30 33 H 0.434265 -1.76974 0.265905 0
M  V30 34 H -0.660536 -1.35762 -1.84886 0
M  V30 35 H 0.860787 -2.06815 -1.86457 0
M  V30 36 H 2.77621 -1.88874 2.83581 0
M  V30 37 H 1.53253 -0.663125 2.98062 0
M  V30 38 H 1.26523 -2.21398 2.02345 0
M  V30 39 H 4.41954 -0.523442 2.259 0
M  V30 40 H 6.06827 1.5235 1.60215 0
M  V30 41 H 6.62138 0.0319309 0.7771 0
M  V30 42 H 6.27447 1.57507 -0.19701 0
M  V30 43 H 4.47575 1.39452 -1.48147 0
M  V30 44 H 1.11821 1.15433 -2.43576 0
M  V30 45 H 2.76896 1.46423 -2.81381 0
M  V30 46 H 2.24744 -0.178026 -3.01082 0
M  V30 47 H -2.79657 1.62904 -2.76912 0
M  V30 48 H -1.71163 2.40532 -1.64597 0
M  V30 49 H -1.2194 0.927337 -2.65777 0
M  V30 50 H -4.57003 0.869117 -1.83132 0
M  V30 END ATOM
M  V30 BEGIN BOND
M  V30 1 1 1 2
M  V30 2 2 2 3
M  V30 3 1 3 4
M  V30 4 1 4 5
M  V30 5 2 4 6
M  V30 6 1 6 7
M  V30 7 1 7 8
M  V30 8 1 7 9
M  V30 9 1 9 10
M  V30 10 1 9 11
M  V30 11 2 11 12
M  V30 12 1 12 13
M  V30 13 1 12 14
M  V30 14 2 14 15
M  V30 15 1 15 16
M  V30 16 1 15 17
M  V30 17 2 17 18
M  V30 18 1 18 19
M  V30 19 1 6 20
M  V30 20 1 20 21
M  V30 21 2 20 22
M  V30 22 1 22 2
M  V30 23 1 18 11
M  V30 24 1 1 23
M  V30 25 1 1 24
M  V30 26 1 1 25
M  V30 27 1 3 26
M  V30 28 1 5 27
M  V30 29 1 5 28
M  V30 30 1 5 29
M  V30 31 1 7 30 CFG=1
M  V30 32 1 8 31
M  V30 33 1 8 32
M  V30 34 1 9 33 CFG=1
M  V30 35 1 10 34
M  V30 36 1 10 35
M  V30 37 1 13 36
M  V30 38 1 13 37
M  V30 39 1 13 38
M  V30 40 1 14 39
M  V30 41 1 16 40
M  V30 42 1 16 41
M  V30 43 1 16 42
M  V30 44 1 17 43
M  V30 45 1 19 44
M  V30 46 1 19 45
M  V30 47 1 19 46
M  V30 48 1 21 47
M  V30 49 1 21 48
M  V30 50 1 21 49
M  V30 51 1 22 50
M  V30 END BOND
M  V30 END CTAB
M  END
