
     RDKit          3D

  0  0  0  0  0  0  0  0  0  0999 V3000
M  V30 BEGIN CTAB
M  V30 COUNTS 95 96 0 0 0
M  V30 BEGIN ATOM
M  V30 1 C -1.53909 -1.1925 -0.367386 0 CFG=1
M  V30 2 C -1.33985 -1.91234 0.900846 0
M  V30 3 C -1.2243 -1.13438 2.1513 0
M  V30 4 C -1.03594 -2.12784 3.30654 0
M  V30 5 N -2.13399 -3.03261 3.44802 0
M  V30 6 C -2.0663 -4.01348 4.47436 0
M  V30 7 N -3.10163 -4.09825 5.43561 0
M  V30 8 N -1.06344 -4.80793 4.51046 0
M  V30 9 N -2.7176 -0.361117 -0.454209 0
M  V30 10 C -3.78231 -0.61607 -1.3411 0
M  V30 11 O -3.80765 -1.59062 -2.13585 0
M  V30 12 C -4.94799 0.315366 -1.346 0 CFG=2
M  V30 13 C -5.52455 0.506105 0.014907 0
M  V30 14 C -6.66737 1.43619 0.00374482 0
M  V30 15 C -6.41675 2.81172 0.0733963 0
M  V30 16 C -7.43582 3.74664 0.0962083 0
M  V30 17 C -8.75149 3.34232 0.0501564 0
M  V30 18 O -9.77355 4.29358 0.0741693 0
M  V30 19 C -8.99238 1.99502 -0.0180627 0
M  V30 20 C -7.968 1.055 -0.0408338 0
M  V30 21 N -5.93795 -0.0890754 -2.28887 0
M  V30 22 C -5.66984 -0.152712 -3.70032 0
M  V30 23 N -6.31575 -1.17693 -4.43637 0
M  V30 24 N -4.87457 0.685931 -4.27099 0
M  V30 25 C -0.41315 -0.442191 -0.919738 0
M  V30 26 O -0.647624 0.282901 -1.94585 0
M  V30 27 N 0.873559 -0.496833 -0.372997 0
M  V30 28 C 1.98091 0.250869 -0.971635 0 CFG=1
M  V30 29 C 2.31478 1.46345 -0.118929 0
M  V30 30 C 1.17549 2.40132 -0.00681261 0
M  V30 31 C 0.274683 2.38862 1.0136 0
M  V30 32 C -0.76686 3.30021 1.03504 0
M  V30 33 C -0.932408 4.23629 0.0503916 0
M  V30 34 C -0.00687243 4.24339 -0.989213 0
M  V30 35 C 1.02195 3.34139 -1.00924 0
M  V30 36 C 3.18712 -0.594199 -1.01778 0
M  V30 37 O 3.12696 -1.69209 -0.385709 0
M  V30 38 N 4.33744 -0.21231 -1.71875 0
M  V30 39 C 4.39996 0.9766 -2.50472 0
M  V30 40 C 5.52468 -1.08072 -1.60141 0
M  V30 41 C 6.36068 -0.623669 -0.422216 0
M  V30 42 C 7.58194 -1.43651 -0.222516 0
M  V30 43 O 7.89541 -2.40861 -0.973614 0
M  V30 44 N 8.46953 -1.14593 0.84844 0
M  V30 45 C 9.66903 -1.87765 1.11012 0
M  V30 46 C 10.6769 -1.8663 -0.000580575 0
M  V30 47 C 11.105 -0.463447 -0.320694 0
M  V30 48 H -1.73459 -2.01615 -1.15286 0
M  V30 49 H -0.431107 -2.56719 0.795896 0
M  V30 50 H -2.18765 -2.64754 1.0385 0
M  V30 51 H -2.14873 -0.565521 2.37878 0
M  V30 52 H -0.395431 -0.441938 2.23378 0
M  V30 53 H -0.0852354 -2.69836 3.1846 0
M  V30 54 H -0.939641 -1.48889 4.2169 0
M  V30 55 H -2.97946 -3.00823 2.84359 0
M  V30 56 H -2.93691 -4.65535 6.30661 0
M  V30 57 H -4.01304 -3.61262 5.27734 0
M  V30 58 H -0.297294 -4.76134 3.8163 0
M  V30 59 H -2.79994 0.487009 0.175424 0
M  V30 60 H -4.49534 1.31295 -1.648 0
M  V30 61 H -5.88655 -0.481964 0.411158 0
M  V30 62 H -4.75238 0.837911 0.751821 0
M  V30 63 H -5.385 3.11029 0.109035 0
M  V30 64 H -7.22582 4.79794 0.150695 0
M  V30 65 H -10.1435 4.69386 -0.760323 0
M  V30 66 H -10.0307 1.63994 -0.0581334 0
M  V30 67 H -8.23309 0.00620875 -0.0859225 0
M  V30 68 H -6.88611 -0.356483 -1.97577 0
M  V30 69 H -5.82256 -1.83574 -5.06472 0
M  V30 70 H -7.34659 -1.27045 -4.33846 0
M  V30 71 H -4.40473 1.43256 -3.72708 0
M  V30 72 H 1.05138 -1.07884 0.468716 0
M  V30 73 H 1.62894 0.627199 -1.93866 0
M  V30 74 H 2.62865 1.11602 0.915028 0
M  V30 75 H 3.17159 2.0464 -0.473868 0
M  V30 76 H 0.391323 1.67934 1.79536 0
M  V30 77 H -1.46154 3.24433 1.87902 0
M  V30 78 H -1.74625 4.9315 0.0879226 0
M  V30 79 H -0.165007 4.99217 -1.74996 0
M  V30 80 H 1.72293 3.37753 -1.83492 0
M  V30 81 H 4.99499 1.73448 -1.94887 0
M  V30 82 H 4.87182 0.786136 -3.51833 0
M  V30 83 H 3.4175 1.38332 -2.73069 0
M  V30 84 H 5.2482 -2.14706 -1.52368 0
M  V30 85 H 6.07734 -0.947982 -2.55356 0
M  V30 86 H 6.60126 0.451194 -0.623402 0
M  V30 87 H 5.76354 -0.631794 0.500516 0
M  V30 88 H 8.19989 -0.331346 1.47772 0
M  V30 89 H 10.1566 -1.45558 2.01346 0
M  V30 90 H 9.40553 -2.9393 1.32116 0
M  V30 91 H 11.5921 -2.38648 0.41314 0
M  V30 92 H 10.3428 -2.43754 -0.885368 0
M  V30 93 H 10.703 -0.228185 -1.33706 0
M  V30 94 H 10.6566 0.226783 0.424611 0
M  V30 95 H 12.1871 -0.349759 -0.310094 0
M  V30 END ATOM
M  V30 BEGIN BOND
M  V30 1 1 1 2
M  V30 2 1 2 3
M  V30 3 1 3 4
M  V30 4 1 4 5
M  V30 5 1 5 6
M  V30 6 1 6 7
M  V30 7 2 6 8 CFG=2
M  V30 8 1 1 9
M  V30 9 1 9 10
M  V30 10 2 10 11
M  V30 11 1 10 12
M  V30 12 1 12 13
M  V30 13 1 13 14
M  V30 14 2 14 15
M  V30 15 1 15 16
M  V30 16 2 16 17
M  V30 17 1 17 18
M  V30 18 1 17 19
M  V30 19 2 19 20
M  V30 20 1 12 21
M  V30 21 1 21 22
M  V30 22 1 22 23
M  V30 23 2 22 24 CFG=2
M  V30 24 1 1 25
M  V30 25 2 25 26
M  V30 26 1 25 27
M  V30 27 1 27 28
M  V30 28 1 28 29
M  V30 29 1 29 30
M  V30 30 2 30 31
M  V30 31 1 31 32
M  V30 32 2 32 33
M  V30 33 1 33 34
M  V30 34 2 34 35
M  V30 35 1 28 36
M  V30 36 2 36 37
M  V30 37 1 36 38
M  V30 38 1 38 39
M  V30 39 1 38 40
M  V30 40 1 40 41
M  V30 41 1 41 42
M  V30 42 2 42 43
M  V30 43 1 42 44
M  V30 44 1 44 45
M  V30 45 1 45 46
M  V30 46 1 46 47
M  V30 47 1 20 14
M  V30 48 1 35 30
M  V30 49 1 1 48 CFG=3
M  V30 50 1 2 49
M  V30 51 1 2 50
M  V30 52 1 3 51
M  V30 53 1 3 52
M  V30 54 1 4 53
M  V30 55 1 4 54
M  V30 56 1 5 55
M  V30 57 1 7 56
M  V30 58 1 7 57
M  V30 59 1 8 58
M  V30 60 1 9 59
M  V30 61 1 12 60 CFG=3
M  V30 62 1 13 61
M  V30 63 1 13 62
M  V30 64 1 15 63
M  V30 65 1 16 64
M  V30 66 1 18 65
M  V30 67 1 19 66
M  V30 68 1 20 67
M  V30 69 1 21 68
M  V30 70 1 23 69
M  V30 71 1 23 70
M  V30 72 1 24 71
M  V30 73 1 27 72
M  V30 74 1 28 73 CFG=3
M  V30 75 1 29 74
M  V30 76 1 29 75
M  V30 77 1 31 76
M  V30 78 1 32 77
M  V30 79 1 33 78
M  V30 80 1 34 79
M  V30 81 1 35 80
M  V30 82 1 39 81
M  V30 83 1 39 82
M  V30 84 1 39 83
M  V30 85 1 40 84
M  V30 86 1 40 85
M  V30 87 1 41 86
M  V30 88 1 41 87
M  V30 89 1 44 88
M  V30 90 1 45 89
M  V30 91 1 45 90
M  V30 92 1 46 91
M  V30 93 1 46 92
M  V30 94 1 47 93
M  V30 95 1 47 94
M  V30 96 1 47 95
M  V30 END BOND
M  V30 END CTAB
M  END
