
     RDKit          3D

  0  0  0  0  0  0  0  0  0  0999 V3000
M  V30 BEGIN CTAB
M  V30 COUNTS 54 58 0 0 0
M  V30 BEGIN ATOM
M  V30 1 N 5.13976 3.15547 0.373446 0
M  V30 2 C 5.33036 2.51411 -0.875194 0
M  V30 3 N 5.73497 3.19222 -1.94872 0
M  V30 4 C 5.91901 2.58547 -3.14502 0
M  V30 5 C 5.68504 1.24926 -3.25454 0
M  V30 6 C 5.26321 0.522006 -2.15097 0
M  V30 7 C 5.08172 1.16338 -0.938015 0
M  V30 8 C 4.66428 0.419409 0.135022 0
M  V30 9 C 4.42121 -0.931527 0.0497857 0
M  V30 10 C 4.61305 -1.53465 -1.17435 0
M  V30 11 C 5.03304 -0.827795 -2.28618 0
M  V30 12 N 3.9848 -1.70539 1.17341 0
M  V30 13 N 4.76457 -2.34827 2.03066 0
M  V30 14 N 4.0462 -2.96224 2.94788 0
M  V30 15 C 2.75012 -2.71672 2.68767 0
M  V30 16 C 2.72551 -1.92499 1.56888 0
M  V30 17 C 1.50088 -1.41687 0.93124 0
M  V30 18 O 1.69721 -0.711632 -0.0874694 0
M  V30 19 N 0.231459 -1.72444 1.45908 0
M  V30 20 C -1.03535 -1.33996 0.999508 0
M  V30 21 C -2.16144 -1.75997 1.73099 0
M  V30 22 C -3.42427 -1.42204 1.33888 0
M  V30 23 C -3.67745 -0.656768 0.214832 0
M  V30 24 C -2.58676 -0.249233 -0.496526 0
M  V30 25 C -1.27986 -0.582414 -0.114743 0
M  V30 26 C -5.03794 -0.364877 -0.161814 0
M  V30 27 C -5.82425 -1.37364 -0.749282 0
M  V30 28 C -7.12006 -1.12151 -1.14459 0
M  V30 29 C -7.68088 0.127252 -0.974696 0
M  V30 30 C -6.89805 1.09622 -0.399848 0
M  V30 31 C -5.57652 0.874439 0.0144189 0
M  V30 32 S -4.69861 2.15425 0.751646 0
M  V30 33 N -4.1378 1.76291 2.33538 0
M  V30 34 O -3.59452 2.65154 -0.11031 0
M  V30 35 O -5.63663 3.35273 0.929773 0
M  V30 36 H 5.63009 2.80856 1.21495 0
M  V30 37 H 4.50298 3.97221 0.419872 0
M  V30 38 H 6.24453 3.13651 -4.00462 0
M  V30 39 H 5.83694 0.776125 -4.22068 0
M  V30 40 H 4.52808 0.947583 1.08185 0
M  V30 41 H 4.4371 -2.5849 -1.29216 0
M  V30 42 H 5.19302 -1.26737 -3.25812 0
M  V30 43 H 1.93095 -3.09618 3.27973 0
M  V30 44 H 0.261959 -2.33927 2.33317 0
M  V30 45 H -2.02892 -2.37051 2.63435 0
M  V30 46 H -4.2808 -1.76733 1.93396 0
M  V30 47 H -2.71762 0.337872 -1.40403 0
M  V30 48 H -0.458104 -0.226323 -0.724695 0
M  V30 49 H -5.35831 -2.34283 -0.869954 0
M  V30 50 H -7.72924 -1.91038 -1.60188 0
M  V30 51 H -8.69763 0.328244 -1.2843 0
M  V30 52 H -7.32255 2.08159 -0.259247 0
M  V30 53 H -4.87981 2.00459 3.02858 0
M  V30 54 H -3.30869 2.36608 2.53162 0
M  V30 END ATOM
M  V30 BEGIN BOND
M  V30 1 1 1 2
M  V30 2 2 2 3
M  V30 3 1 3 4
M  V30 4 2 4 5
M  V30 5 1 5 6
M  V30 6 2 6 7
M  V30 7 1 7 8
M  V30 8 2 8 9
M  V30 9 1 9 10
M  V30 10 2 10 11
M  V30 11 1 9 12
M  V30 12 1 12 13
M  V30 13 2 13 14
M  V30 14 1 14 15
M  V30 15 2 15 16
M  V30 16 1 16 17
M  V30 17 2 17 18
M  V30 18 1 17 19
M  V30 19 1 19 20
M  V30 20 2 20 21
M  V30 21 1 21 22
M  V30 22 2 22 23
M  V30 23 1 23 24
M  V30 24 2 24 25
M  V30 25 1 23 26
M  V30 26 2 26 27
M  V30 27 1 27 28
M  V30 28 2 28 29
M  V30 29 1 29 30
M  V30 30 2 30 31
M  V30 31 1 31 32
M  V30 32 1 32 33
M  V30 33 2 32 34
M  V30 34 2 32 35
M  V30 35 1 7 2
M  V30 36 1 16 12
M  V30 37 1 25 20
M  V30 38 1 31 26
M  V30 39 1 11 6
M  V30 40 1 1 36
M  V30 41 1 1 37
M  V30 42 1 4 38
M  V30 43 1 5 39
M  V30 44 1 8 40
M  V30 45 1 10 41
M  V30 46 1 11 42
M  V30 47 1 15 43
M  V30 48 1 19 44
M  V30 49 1 21 45
M  V30 50 1 22 46
M  V30 51 1 24 47
M  V30 52 1 25 48
M  V30 53 1 27 49
M  V30 54 1 28 50
M  V30 55 1 29 51
M  V30 56 1 30 52
M  V30 57 1 33 53
M  V30 58 1 33 54
M  V30 END BOND
M  V30 END CTAB
M  END
