
     RDKit          3D

  0  0  0  0  0  0  0  0  0  0999 V3000
M  V30 BEGIN CTAB
M  V30 COUNTS 33 36 0 0 0
M  V30 BEGIN ATOM
M  V30 1 N 5.0528 -2.42253 -0.20689 0
M  V30 2 C 4.04119 -1.42374 -0.14168 0
M  V30 3 N 4.34133 -0.107735 -0.0818623 0
M  V30 4 C 3.42161 0.858952 -0.019719 0
M  V30 5 N 3.75067 2.24489 0.0430872 0
M  V30 6 C 2.0845 0.515219 -0.0152463 0
M  V30 7 C 1.09896 1.46743 0.0471969 0
M  V30 8 C -0.223896 1.04505 0.0475627 0
M  V30 9 C -1.24375 2.10414 0.113699 0
M  V30 10 C -2.65313 1.67058 0.126467 0
M  V30 11 C -2.93257 0.227057 0.0548403 0
M  V30 12 C -4.28852 -0.195383 0.0551856 0
M  V30 13 C -4.61491 -1.5217 -0.00728147 0
M  V30 14 C -3.5947 -2.44802 -0.0710868 0
M  V30 15 C -2.27245 -2.05482 -0.0724209 0
M  V30 16 C -1.92953 -0.690324 -0.00831735 0
M  V30 17 C -0.533837 -0.293146 -0.0130977 0
M  V30 18 N 0.445287 -1.22257 -0.0743651 0
M  V30 19 C 1.73796 -0.81717 -0.0751262 0
M  V30 20 N 2.73349 -1.73378 -0.136023 0
M  V30 21 H 6.00427 -2.21831 -0.574083 0
M  V30 22 H 4.84844 -3.38451 0.117514 0
M  V30 23 H 3.957 2.73919 0.917959 0
M  V30 24 H 3.78789 2.80188 -0.842003 0
M  V30 25 H 1.38 2.50482 0.0936214 0
M  V30 26 H -1.04084 2.86993 -0.70769 0
M  V30 27 H -0.988526 2.69806 1.04682 0
M  V30 28 H -3.08821 1.99183 1.12993 0
M  V30 29 H -3.27358 2.24813 -0.608399 0
M  V30 30 H -5.05373 0.593487 0.107844 0
M  V30 31 H -5.66707 -1.81624 -0.00531811 0
M  V30 32 H -3.84037 -3.49478 -0.120544 0
M  V30 33 H -1.44575 -2.73592 -0.12057 0
M  V30 END ATOM
M  V30 BEGIN BOND
M  V30 1 1 1 2
M  V30 2 2 2 3
M  V30 3 1 3 4
M  V30 4 1 4 5
M  V30 5 2 4 6
M  V30 6 1 6 7
M  V30 7 2 7 8
M  V30 8 1 8 9
M  V30 9 1 9 10
M  V30 10 1 10 11
M  V30 11 2 11 12
M  V30 12 1 12 13
M  V30 13 2 13 14
M  V30 14 1 14 15
M  V30 15 2 15 16
M  V30 16 1 16 17
M  V30 17 2 17 18
M  V30 18 1 18 19
M  V30 19 2 19 20
M  V30 20 1 20 2
M  V30 21 1 19 6
M  V30 22 1 17 8
M  V30 23 1 16 11
M  V30 24 1 1 21
M  V30 25 1 1 22
M  V30 26 1 5 23
M  V30 27 1 5 24
M  V30 28 1 7 25
M  V30 29 1 9 26
M  V30 30 1 9 27
M  V30 31 1 10 28
M  V30 32 1 10 29
M  V30 33 1 12 30
M  V30 34 1 13 31
M  V30 35 1 14 32
M  V30 36 1 15 33
M  V30 END BOND
M  V30 END CTAB
M  END
