
     RDKit          3D

  0  0  0  0  0  0  0  0  0  0999 V3000
M  V30 BEGIN CTAB
M  V30 COUNTS 23 23 0 0 0
M  V30 BEGIN ATOM
M  V30 1 N 3.05614 0.341564 -0.015754 0
M  V30 2 C 1.94242 -0.544692 0.265678 0
M  V30 3 C 0.763439 -0.26391 -0.639653 0
M  V30 4 C 0.294906 1.16392 -0.442234 0
M  V30 5 C -0.934195 1.03089 0.443883 0
M  V30 6 C -1.58799 -0.207544 -0.0700575 0
M  V30 7 C -0.385316 -1.13054 -0.286954 0
M  V30 8 N -2.32194 -0.00429472 -1.29795 0
M  V30 9 C -2.49825 -0.819526 0.898466 0
M  V30 10 N -3.23289 -1.28905 1.66866 0
M  V30 11 H 3.93768 -0.167596 0.251933 0
M  V30 12 H 3.06474 0.605896 -1.02991 0
M  V30 13 H 1.61866 -0.311117 1.32095 0
M  V30 14 H 2.21088 -1.61518 0.158514 0
M  V30 15 H 1.09677 -0.381559 -1.68956 0
M  V30 16 H 1.08129 1.75601 0.078143 0
M  V30 17 H 0.0850656 1.65741 -1.39537 0
M  V30 18 H -0.589976 0.849662 1.4777 0
M  V30 19 H -1.55891 1.93281 0.407762 0
M  V30 20 H -0.621772 -1.91535 -1.02879 0
M  V30 21 H -0.213177 -1.6325 0.688676 0
M  V30 22 H -1.89096 0.758446 -1.90008 0
M  V30 23 H -3.31659 0.186253 -1.08336 0
M  V30 END ATOM
M  V30 BEGIN BOND
M  V30 1 1 1 2
M  V30 2 1 2 3
M  V30 3 1 3 4
M  V30 4 1 4 5
M  V30 5 1 5 6
M  V30 6 1 6 7
M  V30 7 1 6 8
M  V30 8 1 6 9
M  V30 9 3 9 10
M  V30 10 1 7 3
M  V30 11 1 1 11
M  V30 12 1 1 12
M  V30 13 1 2 13
M  V30 14 1 2 14
M  V30 15 1 3 15
M  V30 16 1 4 16
M  V30 17 1 4 17
M  V30 18 1 5 18
M  V30 19 1 5 19
M  V30 20 1 7 20
M  V30 21 1 7 21
M  V30 22 1 8 22
M  V30 23 1 8 23
M  V30 END BOND
M  V30 END CTAB
M  END
