
     RDKit          3D

  0  0  0  0  0  0  0  0  0  0999 V3000
M  V30 BEGIN CTAB
M  V30 COUNTS 32 34 0 0 0
M  V30 BEGIN ATOM
M  V30 1 C -1.26032 3.22024 0.590704 0
M  V30 2 C -0.430745 1.97281 0.359799 0
M  V30 3 C -1.04241 0.746191 0.239234 0
M  V30 4 C -2.54774 0.797669 0.346243 0
M  V30 5 C -3.00054 -0.349618 -0.564072 0
M  V30 6 C -2.47583 -1.5503 0.151602 0
M  V30 7 C -0.954219 -1.74652 -0.0925976 0
M  V30 8 C -0.32937 -0.408228 0.0302322 0
M  V30 9 C 1.05643 -0.252528 -0.0527764 0
M  V30 10 C 1.90022 -1.29318 -0.261885 0
M  V30 11 N 1.38859 -2.60515 -0.413865 0
M  V30 12 N 3.26907 -1.15011 -0.348552 0
M  V30 13 C 3.80519 0.0583472 -0.223955 0
M  V30 14 N 5.23404 0.263607 -0.306454 0
M  V30 15 N 2.98678 1.09297 -0.0183278 0
M  V30 16 C 1.65168 1.01177 0.0741234 0
M  V30 17 N 0.890085 2.08044 0.275956 0
M  V30 18 H -0.595149 4.0185 0.920024 0
M  V30 19 H -1.98219 2.93123 1.38185 0
M  V30 20 H -1.71856 3.45815 -0.373289 0
M  V30 21 H -2.9444 1.75529 0.0218154 0
M  V30 22 H -2.81584 0.503953 1.36725 0
M  V30 23 H -2.46282 -0.18057 -1.52706 0
M  V30 24 H -4.08092 -0.413233 -0.657912 0
M  V30 25 H -3.03503 -2.45089 -0.197373 0
M  V30 26 H -2.69176 -1.43243 1.23037 0
M  V30 27 H -1.01019 -2.15708 -1.09572 0
M  V30 28 H -0.775813 -2.42926 0.753667 0
M  V30 29 H 1.32651 -3.21825 0.408615 0
M  V30 30 H 1.10093 -2.95534 -1.34174 0
M  V30 31 H 5.78897 0.593742 0.512249 0
M  V30 32 H 5.75535 0.0878176 -1.18816 0
M  V30 END ATOM
M  V30 BEGIN BOND
M  V30 1 1 1 2
M  V30 2 2 2 3
M  V30 3 1 3 4
M  V30 4 1 4 5
M  V30 5 1 5 6
M  V30 6 1 6 7
M  V30 7 1 7 8
M  V30 8 2 8 9
M  V30 9 1 9 10
M  V30 10 1 10 11
M  V30 11 2 10 12
M  V30 12 1 12 13
M  V30 13 1 13 14
M  V30 14 2 13 15
M  V30 15 1 15 16
M  V30 16 2 16 17
M  V30 17 1 17 2
M  V30 18 1 8 3
M  V30 19 1 16 9
M  V30 20 1 1 18
M  V30 21 1 1 19
M  V30 22 1 1 20
M  V30 23 1 4 21
M  V30 24 1 4 22
M  V30 25 1 5 23
M  V30 26 1 5 24
M  V30 27 1 6 25
M  V30 28 1 6 26
M  V30 29 1 7 27
M  V30 30 1 7 28
M  V30 31 1 11 29
M  V30 32 1 11 30
M  V30 33 1 14 31
M  V30 34 1 14 32
M  V30 END BOND
M  V30 END CTAB
M  END
