
     RDKit          3D

  0  0  0  0  0  0  0  0  0  0999 V3000
M  V30 BEGIN CTAB
M  V30 COUNTS 38 40 0 0 0
M  V30 BEGIN ATOM
M  V30 1 N 6.79193 1.57883 -0.441122 0
M  V30 2 N 5.68489 0.838053 0.0175438 0
M  V30 3 C 4.37855 1.07049 -0.451612 0
M  V30 4 O 4.1921 1.96742 -1.30726 0
M  V30 5 C 3.26131 0.305237 0.0274095 0
M  V30 6 C 3.42404 -0.68404 0.963314 0
M  V30 7 C 2.32134 -1.41692 1.41557 0
M  V30 8 C 1.06919 -1.14734 0.922504 0
M  V30 9 C 0.863208 -0.147527 -0.0315896 0
M  V30 10 C 1.97424 0.546642 -0.446826 0
M  V30 11 N -0.372508 0.0751373 -0.479667 0
M  V30 12 C -1.47717 -0.614456 -0.0677835 0
M  V30 13 N -1.2719 -1.5558 0.835763 0
M  V30 14 C -0.0350822 -1.84197 1.34067 0
M  V30 15 O 0.132362 -2.74932 2.20344 0
M  V30 16 N -2.30884 -2.30571 1.38733 0
M  V30 17 C -2.79395 -0.269663 -0.578979 0
M  V30 18 C -3.85271 -1.14155 -0.635892 0
M  V30 19 C -5.13587 -0.806376 -1.07442 0
M  V30 20 C -5.36591 0.482046 -1.48106 0
M  V30 21 C -4.33078 1.38687 -1.44086 0
M  V30 22 C -3.06262 1.04509 -1.00351 0
M  V30 23 C -2.00546 2.08604 -0.976687 0
M  V30 24 H 6.93514 2.3791 0.213381 0
M  V30 25 H 7.64523 0.977231 -0.469768 0
M  V30 26 H 5.91419 0.115503 0.722387 0
M  V30 27 H 4.38883 -0.943668 1.39067 0
M  V30 28 H 2.45877 -2.19064 2.14955 0
M  V30 29 H 1.85533 1.33729 -1.19262 0
M  V30 30 H -3.03241 -1.7953 1.96988 0
M  V30 31 H -2.35469 -3.3259 1.22298 0
M  V30 32 H -3.7397 -2.17941 -0.370243 0
M  V30 33 H -5.93686 -1.54087 -1.09616 0
M  V30 34 H -6.36147 0.738267 -1.82049 0
M  V30 35 H -4.52324 2.41646 -1.76888 0
M  V30 36 H -2.50604 3.10137 -1.16788 0
M  V30 37 H -1.28825 1.98355 -1.81343 0
M  V30 38 H -1.53519 2.22583 0.0155856 0
M  V30 END ATOM
M  V30 BEGIN BOND
M  V30 1 1 1 2
M  V30 2 1 2 3
M  V30 3 2 3 4
M  V30 4 1 3 5
M  V30 5 2 5 6
M  V30 6 1 6 7
M  V30 7 2 7 8
M  V30 8 1 8 9
M  V30 9 2 9 10
M  V30 10 1 9 11
M  V30 11 2 11 12
M  V30 12 1 12 13
M  V30 13 1 13 14
M  V30 14 2 14 15
M  V30 15 1 13 16
M  V30 16 1 12 17
M  V30 17 2 17 18
M  V30 18 1 18 19
M  V30 19 2 19 20
M  V30 20 1 20 21
M  V30 21 2 21 22
M  V30 22 1 22 23
M  V30 23 1 10 5
M  V30 24 1 22 17
M  V30 25 1 14 8
M  V30 26 1 1 24
M  V30 27 1 1 25
M  V30 28 1 2 26
M  V30 29 1 6 27
M  V30 30 1 7 28
M  V30 31 1 10 29
M  V30 32 1 16 30
M  V30 33 1 16 31
M  V30 34 1 18 32
M  V30 35 1 19 33
M  V30 36 1 20 34
M  V30 37 1 21 35
M  V30 38 1 23 36
M  V30 39 1 23 37
M  V30 40 1 23 38
M  V30 END BOND
M  V30 END CTAB
M  END
