
     RDKit          3D

  0  0  0  0  0  0  0  0  0  0999 V3000
M  V30 BEGIN CTAB
M  V30 COUNTS 34 35 0 0 0
M  V30 BEGIN ATOM
M  V30 1 N -1.64966 -2.69886 -0.962695 0
M  V30 2 C -0.889511 -2.77096 0.260181 0
M  V30 3 C -0.707965 -1.49618 0.995542 0
M  V30 4 N -0.0636574 -0.422784 0.333873 0
M  V30 5 C 1.29269 -0.28979 -0.075494 0 CFG=2
M  V30 6 C 2.22122 -1.40746 0.148149 0
M  V30 7 N 3.56294 -1.03105 -0.343043 0
M  V30 8 C 1.8118 1.02721 0.504113 0
M  V30 9 C 1.20671 2.13816 -0.32776 0
M  V30 10 C -0.267966 1.95528 -0.289595 0
M  V30 11 C -0.874608 0.736613 0.0270501 0
M  V30 12 C -2.23549 0.709837 0.0293541 0
M  V30 13 C -2.99996 1.83355 -0.267558 0
M  V30 14 C -2.38902 3.02897 -0.577988 0
M  V30 15 C -1.01873 3.07438 -0.584922 0
M  V30 16 H -2.65713 -2.59873 -0.712142 0
M  V30 17 H -1.54184 -3.6269 -1.43766 0
M  V30 18 H -0.00923768 -3.38235 0.0827177 0
M  V30 19 H -1.5341 -3.41704 0.949249 0
M  V30 20 H -0.0138773 -1.7647 1.86119 0
M  V30 21 H -1.62565 -1.2238 1.54717 0
M  V30 22 H 1.28294 -0.104187 -1.19471 0
M  V30 23 H 1.94568 -2.26264 -0.536523 0
M  V30 24 H 2.37116 -1.771 1.15612 0
M  V30 25 H 4.20958 -0.810625 0.415798 0
M  V30 26 H 3.51828 -0.373806 -1.12662 0
M  V30 27 H 1.39917 1.10732 1.51209 0
M  V30 28 H 2.90605 1.09878 0.440543 0
M  V30 29 H 1.5847 2.08742 -1.36715 0
M  V30 30 H 1.51326 3.13831 0.0610438 0
M  V30 31 H -2.7578 -0.176551 0.259163 0
M  V30 32 H -4.06749 1.75287 -0.252049 0
M  V30 33 H -2.9731 3.92106 -0.815018 0
M  V30 34 H -0.549397 4.01966 -0.830384 0
M  V30 END ATOM
M  V30 BEGIN BOND
M  V30 1 1 1 2
M  V30 2 1 2 3
M  V30 3 1 3 4
M  V30 4 1 4 5
M  V30 5 1 5 6
M  V30 6 1 6 7
M  V30 7 1 5 8
M  V30 8 1 8 9
M  V30 9 1 9 10
M  V30 10 2 10 11
M  V30 11 1 11 12
M  V30 12 2 12 13
M  V30 13 1 13 14
M  V30 14 2 14 15
M  V30 15 1 11 4
M  V30 16 1 15 10
M  V30 17 1 1 16
M  V30 18 1 1 17
M  V30 19 1 2 18
M  V30 20 1 2 19
M  V30 21 1 3 20
M  V30 22 1 3 21
M  V30 23 1 5 22 CFG=3
M  V30 24 1 6 23
M  V30 25 1 6 24
M  V30 26 1 7 25
M  V30 27 1 7 26
M  V30 28 1 8 27
M  V30 29 1 8 28
M  V30 30 1 9 29
M  V30 31 1 9 30
M  V30 32 1 12 31
M  V30 33 1 13 32
M  V30 34 1 14 33
M  V30 35 1 15 34
M  V30 END BOND
M  V30 END CTAB
M  END
