
     RDKit          3D

  0  0  0  0  0  0  0  0  0  0999 V3000
M  V30 BEGIN CTAB
M  V30 COUNTS 53 57 0 0 0
M  V30 BEGIN ATOM
M  V30 1 N -9.36707 1.26551 0.668637 0
M  V30 2 C -8.19342 1.38384 0.64323 0
M  V30 3 C -6.74729 1.53672 0.663089 0
M  V30 4 C -6.30679 2.68147 1.27896 0
M  V30 5 N -7.19516 3.66355 1.74255 0
M  V30 6 N -4.97859 2.79027 1.40173 0
M  V30 7 C -4.14783 1.81458 0.935969 0
M  V30 8 C -4.54257 0.657896 0.313599 0
M  V30 9 C -5.94113 0.519521 0.171719 0
M  V30 10 C -6.60602 -0.55733 -0.543913 0
M  V30 11 C -7.65488 -0.379136 -1.46601 0
M  V30 12 C -8.00727 -1.61922 -1.92965 0
M  V30 13 C -7.19653 -2.51187 -1.30907 0
M  V30 14 O -6.39171 -1.84305 -0.507129 0
M  V30 15 C -3.54518 -0.174323 -0.0826788 0
M  V30 16 N -3.69127 -1.44913 -0.791712 0
M  V30 17 C -2.25905 0.216553 0.177386 0
M  V30 18 S -2.45121 1.71351 0.955444 0
M  V30 19 C -0.979075 -0.490547 -0.137806 0
M  V30 20 O -1.09865 -1.57497 -0.710554 0
M  V30 21 N 0.178395 0.175867 0.260725 0
M  V30 22 C 1.49243 -0.273888 0.0857351 0
M  V30 23 C 1.81534 -1.55488 -0.339525 0
M  V30 24 C 3.1551 -1.9249 -0.504909 0
M  V30 25 C 4.19454 -1.06354 -0.261476 0
M  V30 26 C 3.84547 0.197627 0.158662 0
M  V30 27 C 2.5526 0.595233 0.331191 0
M  V30 28 C 5.54793 -1.51045 -0.452241 0
M  V30 29 O 5.77917 -2.68544 -0.840493 0
M  V30 30 C 6.69482 -0.623309 -0.204104 0
M  V30 31 C 7.92898 -1.01749 -0.373747 0
M  V30 32 C 9.03833 -0.0802 -0.108096 0
M  V30 33 C 10.3829 -0.305426 -0.226824 0
M  V30 34 C 11.2077 0.702605 0.0714376 0
M  V30 35 C 10.64 1.88382 0.473213 0
M  V30 36 S 8.97059 1.54289 0.419708 0
M  V30 37 H -6.8638 4.32868 2.49498 0
M  V30 38 H -8.15585 3.76062 1.37817 0
M  V30 39 H -8.10827 0.519782 -1.8093 0
M  V30 40 H -8.78567 -1.88064 -2.65869 0
M  V30 41 H -7.19235 -3.59827 -1.43519 0
M  V30 42 H -3.58666 -2.28649 -0.180941 0
M  V30 43 H -3.87307 -1.48056 -1.80189 0
M  V30 44 H 0.07708 1.12127 0.753089 0
M  V30 45 H 1.05643 -2.30014 -0.546832 0
M  V30 46 H 3.39662 -2.93258 -0.839311 0
M  V30 47 H 4.64493 0.929667 0.368583 0
M  V30 48 H 2.31703 1.58654 0.659288 0
M  V30 49 H 6.55781 0.393002 0.129578 0
M  V30 50 H 8.16562 -1.98948 -0.696473 0
M  V30 51 H 10.7342 -1.30671 -0.562972 0
M  V30 52 H 12.3183 0.621706 0.00740916 0
M  V30 53 H 11.1739 2.81126 0.755293 0
M  V30 END ATOM
M  V30 BEGIN BOND
M  V30 1 3 1 2
M  V30 2 1 2 3
M  V30 3 2 3 4
M  V30 4 1 4 5
M  V30 5 1 4 6
M  V30 6 2 6 7
M  V30 7 1 7 8
M  V30 8 2 8 9
M  V30 9 1 9 10
M  V30 10 2 10 11
M  V30 11 1 11 12
M  V30 12 2 12 13
M  V30 13 1 13 14
M  V30 14 1 8 15
M  V30 15 1 15 16
M  V30 16 2 15 17
M  V30 17 1 17 18
M  V30 18 1 17 19
M  V30 19 2 19 20
M  V30 20 1 19 21
M  V30 21 1 21 22
M  V30 22 2 22 23
M  V30 23 1 23 24
M  V30 24 2 24 25
M  V30 25 1 25 26
M  V30 26 2 26 27
M  V30 27 1 25 28
M  V30 28 2 28 29
M  V30 29 1 28 30
M  V30 30 2 30 31
M  V30 31 1 31 32
M  V30 32 2 32 33
M  V30 33 1 33 34
M  V30 34 2 34 35
M  V30 35 1 35 36
M  V30 36 1 9 3
M  V30 37 1 14 10
M  V30 38 1 27 22
M  V30 39 1 36 32
M  V30 40 1 18 7
M  V30 41 1 5 37
M  V30 42 1 5 38
M  V30 43 1 11 39
M  V30 44 1 12 40
M  V30 45 1 13 41
M  V30 46 1 16 42
M  V30 47 1 16 43
M  V30 48 1 21 44
M  V30 49 1 23 45
M  V30 50 1 24 46
M  V30 51 1 26 47
M  V30 52 1 27 48
M  V30 53 1 30 49
M  V30 54 1 31 50
M  V30 55 1 33 51
M  V30 56 1 34 52
M  V30 57 1 35 53
M  V30 END BOND
M  V30 END CTAB
M  END
