
     RDKit          3D

  0  0  0  0  0  0  0  0  0  0999 V3000
M  V30 BEGIN CTAB
M  V30 COUNTS 33 33 0 0 0
M  V30 BEGIN ATOM
M  V30 1 N -3.09468 -1.65781 0.0484317 0
M  V30 2 C -3.40027 -0.233412 0.191883 0
M  V30 3 C -2.1932 0.584551 -0.233171 0
M  V30 4 N -1.10596 0.269185 0.59125 0
M  V30 5 C 0.205749 0.356449 0.110456 0
M  V30 6 C 0.589771 -0.533517 -1.00117 0
M  V30 7 C 2.00836 -0.898108 -1.12652 0
M  V30 8 C 3.00987 -0.18617 -0.316415 0
M  V30 9 C 2.47355 0.714137 0.760124 0
M  V30 10 C 1.1814 0.14633 1.25032 0
M  V30 11 N 3.92978 -1.10476 0.373001 0
M  V30 12 C -2.50151 2.06124 -0.103955 0
M  V30 13 H -3.80383 -2.18066 0.638371 0
M  V30 14 H -3.22592 -1.9425 -0.958329 0
M  V30 15 H -4.33159 0.0400666 -0.288116 0
M  V30 16 H -3.56768 -0.117663 1.30889 0
M  V30 17 H -2.0156 0.389883 -1.31339 0
M  V30 18 H -1.246 0.353666 1.60894 0
M  V30 19 H 0.350467 1.41923 -0.264781 0
M  V30 20 H 0.18036 -0.0701 -1.94978 0
M  V30 21 H -0.0428356 -1.47092 -0.908751 0
M  V30 22 H 2.29462 -0.796849 -2.21784 0
M  V30 23 H 2.1425 -2.00611 -0.949384 0
M  V30 24 H 3.66615 0.459333 -0.956506 0
M  V30 25 H 3.15759 0.802194 1.63311 0
M  V30 26 H 2.28491 1.74558 0.396638 0
M  V30 27 H 1.29798 -0.954353 1.41478 0
M  V30 28 H 0.825412 0.630176 2.18565 0
M  V30 29 H 4.8945 -1.03413 0.0277582 0
M  V30 30 H 3.56194 -2.07555 0.394916 0
M  V30 31 H -2.87896 2.28029 0.906249 0
M  V30 32 H -3.1558 2.43912 -0.918374 0
M  V30 33 H -1.49109 2.57119 -0.163374 0
M  V30 END ATOM
M  V30 BEGIN BOND
M  V30 1 1 1 2
M  V30 2 1 2 3
M  V30 3 1 3 4
M  V30 4 1 4 5
M  V30 5 1 5 6
M  V30 6 1 6 7
M  V30 7 1 7 8
M  V30 8 1 8 9
M  V30 9 1 9 10
M  V30 10 1 8 11
M  V30 11 1 3 12
M  V30 12 1 10 5
M  V30 13 1 1 13
M  V30 14 1 1 14
M  V30 15 1 2 15
M  V30 16 1 2 16
M  V30 17 1 3 17
M  V30 18 1 4 18
M  V30 19 1 5 19
M  V30 20 1 6 20
M  V30 21 1 6 21
M  V30 22 1 7 22
M  V30 23 1 7 23
M  V30 24 1 8 24
M  V30 25 1 9 25
M  V30 26 1 9 26
M  V30 27 1 10 27
M  V30 28 1 10 28
M  V30 29 1 11 29
M  V30 30 1 11 30
M  V30 31 1 12 31
M  V30 32 1 12 32
M  V30 33 1 12 33
M  V30 END BOND
M  V30 END CTAB
M  END
