
     RDKit          3D

  0  0  0  0  0  0  0  0  0  0999 V3000
M  V30 BEGIN CTAB
M  V30 COUNTS 67 68 0 0 0
M  V30 BEGIN ATOM
M  V30 1 N -5.72246 -0.545659 3.28492 0
M  V30 2 C -6.82775 -0.0140438 2.55084 0
M  V30 3 N -7.9528 0.402229 3.14222 0
M  V30 4 C -8.98574 0.899639 2.44536 0
M  V30 5 N -10.1863 1.3279 3.05559 0
M  V30 6 C -8.82835 0.963439 1.04838 0
M  V30 7 Cl -10.1868 1.58151 0.161054 0
M  V30 8 N -7.68583 0.538998 0.478581 0
M  V30 9 C -6.65273 0.0406277 1.17563 0
M  V30 10 C -5.43401 -0.474546 0.569272 0
M  V30 11 O -4.56089 -1.00671 1.22445 0
M  V30 12 N -5.29247 -0.321354 -0.932268 0
M  V30 13 C -5.17989 -0.203318 -2.10166 0
M  V30 14 N -6.11239 0.462124 -2.92684 0
M  V30 15 N -4.13369 -0.680701 -3.03903 0
M  V30 16 C -2.86315 -1.03492 -2.47129 0
M  V30 17 C -2.15952 0.158773 -1.95251 0
M  V30 18 C -1.71495 1.17081 -2.95802 0
M  V30 19 C -0.656725 0.635772 -3.92253 0
M  V30 20 C 0.554562 0.241414 -3.16463 0
M  V30 21 C 0.777494 -1.03225 -2.69618 0
M  V30 22 C 1.87302 -1.35306 -1.95319 0
M  V30 23 C 2.85887 -0.40381 -1.61153 0
M  V30 24 O 3.90147 -0.735541 -0.888792 0
M  V30 25 C 4.86877 -1.11348 -0.197844 0
M  V30 26 C 5.92156 -0.0488097 0.0309915 0
M  V30 27 O 5.80725 1.03009 -0.573651 0
M  V30 28 N 6.98057 -0.334402 0.915886 0
M  V30 29 C 7.00617 -1.54969 1.683 0
M  V30 30 C 6.40236 -1.44585 3.04935 0
M  V30 31 O 6.48606 -2.70635 3.68276 0
M  V30 32 C 8.06867 0.625823 0.975373 0
M  V30 33 C 7.82152 1.74931 1.94615 0
M  V30 34 O 8.92213 2.58906 1.92231 0
M  V30 35 C 2.61764 0.896373 -2.10321 0
M  V30 36 C 1.50854 1.17938 -2.84276 0
M  V30 37 H -5.07741 0.0973239 3.77583 0
M  V30 38 H -5.54893 -1.56848 3.34996 0
M  V30 39 H -10.3333 1.31412 4.08217 0
M  V30 40 H -10.9572 1.66898 2.45946 0
M  V30 41 H -4.20251 -1.12471 -0.76488 0
M  V30 42 H -6.9217 0.852077 -2.43441 0
M  V30 43 H -4.31894 -0.761479 -4.04917 0
M  V30 44 H -2.88395 -1.82804 -1.71201 0
M  V30 45 H -2.23708 -1.53535 -3.30534 0
M  V30 46 H -1.34851 -0.102967 -1.21932 0
M  V30 47 H -2.89718 0.73144 -1.29762 0
M  V30 48 H -1.23397 1.99434 -2.36395 0
M  V30 49 H -2.58011 1.57998 -3.48542 0
M  V30 50 H -0.448134 1.49609 -4.61379 0
M  V30 51 H -1.01858 -0.190949 -4.54506 0
M  V30 52 H 0.0652015 -1.84436 -2.92611 0
M  V30 53 H 2.05446 -2.37176 -1.57535 0
M  V30 54 H 5.47007 -2.04851 -0.593016 0
M  V30 55 H 4.66693 -1.44683 0.900619 0
M  V30 56 H 8.09839 -1.79816 1.84348 0
M  V30 57 H 6.57183 -2.42286 1.13936 0
M  V30 58 H 7.05326 -0.758988 3.68137 0
M  V30 59 H 5.38548 -1.08289 3.07456 0
M  V30 60 H 6.2954 -2.57965 4.66114 0
M  V30 61 H 8.99522 0.0665919 1.30922 0
M  V30 62 H 8.32148 1.02596 -0.0140025 0
M  V30 63 H 6.94601 2.38314 1.57942 0
M  V30 64 H 7.53933 1.42662 2.95489 0
M  V30 65 H 8.62462 3.51221 1.76873 0
M  V30 66 H 3.34733 1.65477 -1.86721 0
M  V30 67 H 1.33228 2.17354 -3.21836 0
M  V30 END ATOM
M  V30 BEGIN BOND
M  V30 1 1 1 2
M  V30 2 2 2 3
M  V30 3 1 3 4
M  V30 4 1 4 5
M  V30 5 2 4 6
M  V30 6 1 6 7
M  V30 7 1 6 8
M  V30 8 2 8 9
M  V30 9 1 9 10
M  V30 10 2 10 11
M  V30 11 1 10 12
M  V30 12 1 12 13
M  V30 13 2 13 14 CFG=2
M  V30 14 1 13 15
M  V30 15 1 15 16
M  V30 16 1 16 17
M  V30 17 1 17 18
M  V30 18 1 18 19
M  V30 19 1 19 20
M  V30 20 2 20 21
M  V30 21 1 21 22
M  V30 22 2 22 23
M  V30 23 1 23 24
M  V30 24 1 24 25
M  V30 25 1 25 26
M  V30 26 2 26 27
M  V30 27 1 26 28
M  V30 28 1 28 29
M  V30 29 1 29 30
M  V30 30 1 30 31
M  V30 31 1 28 32
M  V30 32 1 32 33
M  V30 33 1 33 34
M  V30 34 1 23 35
M  V30 35 2 35 36
M  V30 36 1 9 2
M  V30 37 1 36 20
M  V30 38 1 1 37
M  V30 39 1 1 38
M  V30 40 1 5 39
M  V30 41 1 5 40
M  V30 42 1 12 41
M  V30 43 1 14 42
M  V30 44 1 15 43
M  V30 45 1 16 44
M  V30 46 1 16 45
M  V30 47 1 17 46
M  V30 48 1 17 47
M  V30 49 1 18 48
M  V30 50 1 18 49
M  V30 51 1 19 50
M  V30 52 1 19 51
M  V30 53 1 21 52
M  V30 54 1 22 53
M  V30 55 1 25 54
M  V30 56 1 25 55
M  V30 57 1 29 56
M  V30 58 1 29 57
M  V30 59 1 30 58
M  V30 60 1 30 59
M  V30 61 1 31 60
M  V30 62 1 32 61
M  V30 63 1 32 62
M  V30 64 1 33 63
M  V30 65 1 33 64
M  V30 66 1 34 65
M  V30 67 1 35 66
M  V30 68 1 36 67
M  V30 END BOND
M  V30 END CTAB
M  END
