
     RDKit          3D

  0  0  0  0  0  0  0  0  0  0999 V3000
M  V30 BEGIN CTAB
M  V30 COUNTS 32 33 0 0 0
M  V30 BEGIN ATOM
M  V30 1 C 3.37695 1.01283 -1.77085 0
M  V30 2 C 2.65748 0.313458 -0.654663 0
M  V30 3 C 3.10655 0.37673 0.646689 0
M  V30 4 N 4.28573 1.13112 0.914972 0
M  V30 5 C 2.44887 -0.264157 1.67546 0
M  V30 6 C 1.30771 -0.998691 1.43977 0
M  V30 7 C 0.858874 -1.06141 0.136273 0
M  V30 8 C -0.382944 -1.85412 -0.155665 0
M  V30 9 C -1.59668 -1.01904 -0.051515 0
M  V30 10 C -2.26915 -0.894278 1.13404 0
M  V30 11 C -3.39698 -0.106879 1.19271 0
M  V30 12 C -3.87303 0.56778 0.0749606 0
M  V30 13 N -5.01313 1.37786 0.0871607 0
M  V30 14 C -3.16786 0.4151 -1.09534 0
M  V30 15 C -2.04118 -0.363827 -1.17955 0
M  V30 16 C 1.51424 -0.422785 -0.888822 0
M  V30 17 H 3.87516 1.93454 -1.3933 0
M  V30 18 H 2.64828 1.35184 -2.5405 0
M  V30 19 H 4.16375 0.37298 -2.20992 0
M  V30 20 H 4.21229 2.15818 0.844732 0
M  V30 21 H 5.18909 0.678316 1.17187 0
M  V30 22 H 2.82922 -0.194664 2.69255 0
M  V30 23 H 0.758672 -1.51727 2.21059 0
M  V30 24 H -0.490714 -2.67888 0.58858 0
M  V30 25 H -0.299798 -2.27842 -1.17594 0
M  V30 26 H -1.90579 -1.41593 2.00955 0
M  V30 27 H -3.94263 0.0105847 2.10054 0
M  V30 28 H -5.12076 2.2633 -0.460749 0
M  V30 29 H -5.85291 1.1233 0.673901 0
M  V30 30 H -3.51774 0.928656 -1.97594 0
M  V30 31 H -1.5051 -0.461428 -2.13081 0
M  V30 32 H 1.14355 -0.484797 -1.91077 0
M  V30 END ATOM
M  V30 BEGIN BOND
M  V30 1 1 1 2
M  V30 2 2 2 3
M  V30 3 1 3 4
M  V30 4 1 3 5
M  V30 5 2 5 6
M  V30 6 1 6 7
M  V30 7 1 7 8
M  V30 8 1 8 9
M  V30 9 2 9 10
M  V30 10 1 10 11
M  V30 11 2 11 12
M  V30 12 1 12 13
M  V30 13 1 12 14
M  V30 14 2 14 15
M  V30 15 2 7 16
M  V30 16 1 16 2
M  V30 17 1 15 9
M  V30 18 1 1 17
M  V30 19 1 1 18
M  V30 20 1 1 19
M  V30 21 1 4 20
M  V30 22 1 4 21
M  V30 23 1 5 22
M  V30 24 1 6 23
M  V30 25 1 8 24
M  V30 26 1 8 25
M  V30 27 1 10 26
M  V30 28 1 11 27
M  V30 29 1 13 28
M  V30 30 1 13 29
M  V30 31 1 14 30
M  V30 32 1 15 31
M  V30 33 1 16 32
M  V30 END BOND
M  V30 END CTAB
M  END
