
     RDKit          3D

  0  0  0  0  0  0  0  0  0  0999 V3000
M  V30 BEGIN CTAB
M  V30 COUNTS 29 30 0 0 0
M  V30 BEGIN ATOM
M  V30 1 C -2.81888 -0.752566 -0.537954 0
M  V30 2 C -1.46526 -0.0758273 -0.670013 0
M  V30 3 C -0.631088 -0.321001 0.598705 0
M  V30 4 C -1.19587 0.190952 1.83269 0
M  V30 5 C -1.19641 -1.31489 1.58531 0
M  V30 6 C 0.800118 -0.504781 0.309304 0
M  V30 7 N 1.48426 -1.65168 0.615305 0
M  V30 8 C 2.76098 -1.52171 0.225977 0
M  V30 9 N 2.90867 -0.304749 -0.327429 0
M  V30 10 C 1.73122 0.299794 -0.274729 0
M  V30 11 N 1.49154 1.60847 -0.761976 0
M  V30 12 N 4.0829 0.240777 -0.865697 0
M  V30 13 C -1.763 1.41458 -0.697233 0
M  V30 14 H -3.40243 -0.434697 -1.43305 0
M  V30 15 H -3.37721 -0.388347 0.353004 0
M  V30 16 H -2.7475 -1.84663 -0.577995 0
M  V30 17 H -0.977274 -0.438744 -1.56335 0
M  V30 18 H -2.18948 0.692907 1.79255 0
M  V30 19 H -0.603619 0.541951 2.6997 0
M  V30 20 H -2.16182 -1.80344 1.37671 0
M  V30 21 H -0.491078 -1.93582 2.16012 0
M  V30 22 H 3.58902 -2.21519 0.302448 0
M  V30 23 H 1.46357 1.80528 -1.7879 0
M  V30 24 H 1.34192 2.38051 -0.0808134 0
M  V30 25 H 4.07695 0.509098 -1.86794 0
M  V30 26 H 4.90822 0.352624 -0.237229 0
M  V30 27 H -1.38529 1.88427 -1.63111 0
M  V30 28 H -2.87027 1.62308 -0.687787 0
M  V30 29 H -1.36287 1.96579 0.150393 0
M  V30 END ATOM
M  V30 BEGIN BOND
M  V30 1 1 1 2
M  V30 2 1 2 3
M  V30 3 1 3 4
M  V30 4 1 4 5
M  V30 5 1 3 6
M  V30 6 1 6 7
M  V30 7 2 7 8
M  V30 8 1 8 9
M  V30 9 1 9 10
M  V30 10 1 10 11
M  V30 11 1 9 12
M  V30 12 1 2 13
M  V30 13 1 5 3
M  V30 14 2 10 6
M  V30 15 1 1 14
M  V30 16 1 1 15
M  V30 17 1 1 16
M  V30 18 1 2 17
M  V30 19 1 4 18
M  V30 20 1 4 19
M  V30 21 1 5 20
M  V30 22 1 5 21
M  V30 23 1 8 22
M  V30 24 1 11 23
M  V30 25 1 11 24
M  V30 26 1 12 25
M  V30 27 1 12 26
M  V30 28 1 13 27
M  V30 29 1 13 28
M  V30 30 1 13 29
M  V30 END BOND
M  V30 END CTAB
M  END
