
     RDKit          3D

  0  0  0  0  0  0  0  0  0  0999 V3000
M  V30 BEGIN CTAB
M  V30 COUNTS 38 38 0 0 0
M  V30 BEGIN ATOM
M  V30 1 C -3.40647 -0.587032 -1.39677 0
M  V30 2 C -2.40045 -1.16651 -0.479943 0
M  V30 3 C -3.10577 -1.75703 0.722276 0
M  V30 4 N -1.29375 -0.266775 -0.114722 0
M  V30 5 C -1.52329 0.962355 0.552458 0
M  V30 6 C -2.35036 0.894333 1.82569 0
M  V30 7 C -2.18277 1.99823 -0.39257 0
M  V30 8 C -0.00523039 -0.75623 -0.403494 0
M  V30 9 O -0.0621717 -2.01166 -0.845718 0
M  V30 10 C 1.30126 -0.219517 -0.32626 0
M  V30 11 C 2.37997 -1.10817 -0.29733 0
M  V30 12 C 3.69509 -0.730195 -0.305436 0
M  V30 13 N 4.75861 -1.68387 -0.274573 0
M  V30 14 C 4.00654 0.596092 -0.344051 0
M  V30 15 N 5.38308 1.02924 -0.352416 0
M  V30 16 C 2.98752 1.5076 -0.374598 0
M  V30 17 C 1.63384 1.09585 -0.366638 0
M  V30 18 H -4.31537 -0.193476 -0.877605 0
M  V30 19 H -3.01943 0.100027 -2.17116 0
M  V30 20 H -3.83774 -1.44239 -2.00602 0
M  V30 21 H -1.98203 -2.09006 -0.994439 0
M  V30 22 H -3.54874 -2.74485 0.355002 0
M  V30 23 H -3.88812 -1.13773 1.15514 0
M  V30 24 H -2.36781 -2.12285 1.4946 0
M  V30 25 H -0.602141 1.45626 0.871597 0
M  V30 26 H -2.18475 0.0258611 2.4432 0
M  V30 27 H -3.39655 1.11873 1.53884 0
M  V30 28 H -2.0805 1.77766 2.49483 0
M  V30 29 H -3.2821 1.89337 -0.396525 0
M  V30 30 H -1.9958 3.03125 0.0203772 0
M  V30 31 H -1.69888 1.92042 -1.37846 0
M  V30 32 H 2.18381 -2.16221 -0.263292 0
M  V30 33 H 5.62715 -1.52286 -0.798894 0
M  V30 34 H 4.64171 -2.54128 0.284659 0
M  V30 35 H 5.83373 1.38766 0.514663 0
M  V30 36 H 5.95826 0.995197 -1.21934 0
M  V30 37 H 3.21725 2.57293 -0.405713 0
M  V30 38 H 0.92239 1.88163 -0.438391 0
M  V30 END ATOM
M  V30 BEGIN BOND
M  V30 1 1 1 2
M  V30 2 1 2 3
M  V30 3 1 2 4
M  V30 4 1 4 5
M  V30 5 1 5 6
M  V30 6 1 5 7
M  V30 7 1 4 8
M  V30 8 2 8 9
M  V30 9 1 8 10
M  V30 10 2 10 11
M  V30 11 1 11 12
M  V30 12 1 12 13
M  V30 13 2 12 14
M  V30 14 1 14 15
M  V30 15 1 14 16
M  V30 16 2 16 17
M  V30 17 1 17 10
M  V30 18 1 1 18
M  V30 19 1 1 19
M  V30 20 1 1 20
M  V30 21 1 2 21
M  V30 22 1 3 22
M  V30 23 1 3 23
M  V30 24 1 3 24
M  V30 25 1 5 25
M  V30 26 1 6 26
M  V30 27 1 6 27
M  V30 28 1 6 28
M  V30 29 1 7 29
M  V30 30 1 7 30
M  V30 31 1 7 31
M  V30 32 1 11 32
M  V30 33 1 13 33
M  V30 34 1 13 34
M  V30 35 1 15 35
M  V30 36 1 15 36
M  V30 37 1 16 37
M  V30 38 1 17 38
M  V30 END BOND
M  V30 END CTAB
M  END
