
     RDKit          3D

  0  0  0  0  0  0  0  0  0  0999 V3000
M  V30 BEGIN CTAB
M  V30 COUNTS 40 41 0 0 0
M  V30 BEGIN ATOM
M  V30 1 C 6.4309 0.0831583 0.347991 0
M  V30 2 C 5.81065 -0.879586 -0.63009 0
M  V30 3 O 4.41605 -0.589338 -0.738953 0
M  V30 4 C 3.59477 -0.660936 0.375328 0
M  V30 5 O 4.1228 -0.986237 1.46324 0
M  V30 6 C 2.15254 -0.364946 0.282935 0
M  V30 7 C 1.59069 -0.00897333 -0.922291 0
M  V30 8 C 0.233356 0.259841 -0.961817 0
M  V30 9 C -0.583485 0.188441 0.147272 0
M  V30 10 C 0.0220732 -0.174162 1.34393 0
M  V30 11 C 1.3854 -0.452198 1.42265 0
M  V30 12 N -1.97133 0.465203 0.0978004 0
M  V30 13 C -2.40879 1.79875 0.320295 0
M  V30 14 N -1.40584 2.79952 0.585135 0
M  V30 15 N -3.6361 2.15046 0.297238 0
M  V30 16 C -4.63206 1.19065 0.04074 0
M  V30 17 N -6.01535 1.50066 -0.00174252 0
M  V30 18 N -4.27789 -0.0288356 -0.166098 0
M  V30 19 C -2.95886 -0.559812 -0.170537 0
M  V30 20 C -2.91517 -1.64742 0.910084 0
M  V30 21 C -2.63703 -1.26051 -1.49677 0
M  V30 22 H 7.26244 0.663543 -0.147155 0
M  V30 23 H 6.91158 -0.475835 1.16793 0
M  V30 24 H 5.66828 0.803046 0.751805 0
M  V30 25 H 6.2983 -0.894736 -1.61337 0
M  V30 26 H 5.89344 -1.92248 -0.229179 0
M  V30 27 H 2.21837 0.0513292 -1.80095 0
M  V30 28 H -0.195965 0.537761 -1.9115 0
M  V30 29 H -0.542675 -0.255343 2.26528 0
M  V30 30 H 1.86235 -0.735138 2.35228 0
M  V30 31 H -1.10872 2.89247 1.578 0
M  V30 32 H -0.98625 3.40362 -0.13718 0
M  V30 33 H -6.56362 1.26082 -0.842044 0
M  V30 34 H -6.46819 1.96197 0.80126 0
M  V30 35 H -3.77992 -2.31126 0.702737 0
M  V30 36 H -3.09801 -1.19996 1.90742 0
M  V30 37 H -1.97048 -2.22209 0.8559 0
M  V30 38 H -3.27876 -2.15838 -1.60937 0
M  V30 39 H -2.8439 -0.594267 -2.35814 0
M  V30 40 H -1.59559 -1.62879 -1.4629 0
M  V30 END ATOM
M  V30 BEGIN BOND
M  V30 1 1 1 2
M  V30 2 1 2 3
M  V30 3 1 3 4
M  V30 4 2 4 5
M  V30 5 1 4 6
M  V30 6 2 6 7
M  V30 7 1 7 8
M  V30 8 2 8 9
M  V30 9 1 9 10
M  V30 10 2 10 11
M  V30 11 1 9 12
M  V30 12 1 12 13
M  V30 13 1 13 14
M  V30 14 2 13 15
M  V30 15 1 15 16
M  V30 16 1 16 17
M  V30 17 2 16 18
M  V30 18 1 18 19
M  V30 19 1 19 20
M  V30 20 1 19 21
M  V30 21 1 11 6
M  V30 22 1 19 12
M  V30 23 1 1 22
M  V30 24 1 1 23
M  V30 25 1 1 24
M  V30 26 1 2 25
M  V30 27 1 2 26
M  V30 28 1 7 27
M  V30 29 1 8 28
M  V30 30 1 10 29
M  V30 31 1 11 30
M  V30 32 1 14 31
M  V30 33 1 14 32
M  V30 34 1 17 33
M  V30 35 1 17 34
M  V30 36 1 20 35
M  V30 37 1 20 36
M  V30 38 1 20 37
M  V30 39 1 21 38
M  V30 40 1 21 39
M  V30 41 1 21 40
M  V30 END BOND
M  V30 END CTAB
M  END
