
     RDKit          3D

  0  0  0  0  0  0  0  0  0  0999 V3000
M  V30 BEGIN CTAB
M  V30 COUNTS 25 26 0 0 0
M  V30 BEGIN ATOM
M  V30 1 N -3.28464 -2.6947 -0.533062 0
M  V30 2 C -3.10273 -1.3277 -0.224824 0
M  V30 3 N -3.98272 -0.584368 0.34022 0
M  V30 4 N -3.5222 0.70754 0.514354 0
M  V30 5 C -2.32231 0.861174 0.0701422 0
M  V30 6 N -1.51711 2.03669 0.0717979 0
M  V30 7 C -1.9503 -0.468544 -0.45257 0
M  V30 8 N -0.841248 -0.79086 -0.992931 0
M  V30 9 N 0.156335 0.16899 -1.12967 0
M  V30 10 C 1.32263 0.151758 -0.340066 0
M  V30 11 C 2.27189 1.15015 -0.540686 0
M  V30 12 Cl 1.99266 2.38038 -1.75084 0
M  V30 13 C 3.42727 1.18312 0.199763 0
M  V30 14 C 3.66364 0.230182 1.15053 0
M  V30 15 C 2.72404 -0.747184 1.34006 0
M  V30 16 C 1.55757 -0.817023 0.622957 0
M  V30 17 H -3.06074 -3.08854 -1.46802 0
M  V30 18 H -3.65977 -3.4005 0.168969 0
M  V30 19 H -1.0684 2.3811 0.945087 0
M  V30 20 H -1.35502 2.58323 -0.798128 0
M  V30 21 H 0.0280236 0.913855 -1.83566 0
M  V30 22 H 4.13075 1.97506 0.00773144 0
M  V30 23 H 4.5951 0.289803 1.71996 0
M  V30 24 H 2.95245 -1.49235 2.11251 0
M  V30 25 H 0.844804 -1.60124 0.802376 0
M  V30 END ATOM
M  V30 BEGIN BOND
M  V30 1 1 1 2
M  V30 2 2 2 3
M  V30 3 1 3 4
M  V30 4 2 4 5
M  V30 5 1 5 6
M  V30 6 1 5 7
M  V30 7 2 7 8
M  V30 8 1 8 9
M  V30 9 1 9 10
M  V30 10 2 10 11
M  V30 11 1 11 12
M  V30 12 1 11 13
M  V30 13 2 13 14
M  V30 14 1 14 15
M  V30 15 2 15 16
M  V30 16 1 7 2
M  V30 17 1 16 10
M  V30 18 1 1 17
M  V30 19 1 1 18
M  V30 20 1 6 19
M  V30 21 1 6 20
M  V30 22 1 9 21
M  V30 23 1 13 22
M  V30 24 1 14 23
M  V30 25 1 15 24
M  V30 26 1 16 25
M  V30 END BOND
M  V30 END CTAB
M  END
