
     RDKit          3D

  0  0  0  0  0  0  0  0  0  0999 V3000
M  V30 BEGIN CTAB
M  V30 COUNTS 31 31 0 0 0
M  V30 BEGIN ATOM
M  V30 1 C -3.0834 1.57569 0.601952 0
M  V30 2 C -2.91175 0.0823789 0.585225 0
M  V30 3 C -1.5968 -0.331243 -0.0392295 0
M  V30 4 N -0.523966 0.227008 0.698874 0
M  V30 5 C 0.86001 0.0321583 0.392812 0
M  V30 6 C 1.8712 0.59725 1.1392 0
M  V30 7 C 3.21393 0.390368 0.819365 0
M  V30 8 N 4.28636 0.95111 1.55813 0
M  V30 9 N 3.49181 -0.380753 -0.244227 0
M  V30 10 C 2.51976 -0.93362 -0.974933 0
M  V30 11 N 1.22546 -0.724744 -0.653686 0
M  V30 12 N 2.88043 -1.73781 -2.08605 0
M  V30 13 C -1.51963 0.239489 -1.45996 0
M  V30 14 C -1.55461 -1.8345 -0.156904 0
M  V30 15 H -2.75476 2.02638 1.56834 0
M  V30 16 H -2.50293 2.09429 -0.19056 0
M  V30 17 H -4.1631 1.82301 0.504304 0
M  V30 18 H -3.00022 -0.294809 1.60386 0
M  V30 19 H -3.75426 -0.356822 0.0012356 0
M  V30 20 H -0.761279 0.832672 1.53817 0
M  V30 21 H 1.63503 1.20634 1.97977 0
M  V30 22 H 4.20876 0.968898 2.59817 0
M  V30 23 H 5.15271 1.34988 1.1393 0
M  V30 24 H 2.43152 -2.64474 -2.2096 0
M  V30 25 H 3.59757 -1.36681 -2.73977 0
M  V30 26 H -0.937768 -0.494068 -2.0505 0
M  V30 27 H -0.920468 1.17812 -1.45771 0
M  V30 28 H -2.53192 0.408036 -1.87367 0
M  V30 29 H -0.890144 -2.1934 -0.955832 0
M  V30 30 H -1.37273 -2.32705 0.821976 0
M  V30 31 H -2.59482 -2.15085 -0.458051 0
M  V30 END ATOM
M  V30 BEGIN BOND
M  V30 1 1 1 2
M  V30 2 1 2 3
M  V30 3 1 3 4
M  V30 4 1 4 5
M  V30 5 2 5 6
M  V30 6 1 6 7
M  V30 7 1 7 8
M  V30 8 2 7 9
M  V30 9 1 9 10
M  V30 10 2 10 11
M  V30 11 1 10 12
M  V30 12 1 3 13
M  V30 13 1 3 14
M  V30 14 1 11 5
M  V30 15 1 1 15
M  V30 16 1 1 16
M  V30 17 1 1 17
M  V30 18 1 2 18
M  V30 19 1 2 19
M  V30 20 1 4 20
M  V30 21 1 6 21
M  V30 22 1 8 22
M  V30 23 1 8 23
M  V30 24 1 12 24
M  V30 25 1 12 25
M  V30 26 1 13 26
M  V30 27 1 13 27
M  V30 28 1 13 28
M  V30 29 1 14 29
M  V30 30 1 14 30
M  V30 31 1 14 31
M  V30 END BOND
M  V30 END CTAB
M  END
