
     RDKit          3D

  0  0  0  0  0  0  0  0  0  0999 V3000
M  V30 BEGIN CTAB
M  V30 COUNTS 29 29 0 0 0
M  V30 BEGIN ATOM
M  V30 1 C 3.50723 0.249365 1.19844 0
M  V30 2 C 3.33606 -0.421728 -0.146511 0
M  V30 3 C 2.69314 0.509 -1.11679 0
M  V30 4 O 1.44524 0.975727 -0.767953 0
M  V30 5 C 0.573762 -0.0712823 -0.630854 0
M  V30 6 C -0.802714 0.356579 -0.270528 0
M  V30 7 C -1.1566 1.67558 -0.0943992 0
M  V30 8 C -2.45581 2.04528 0.243323 0
M  V30 9 C -3.39671 1.05416 0.40097 0
M  V30 10 C -3.08232 -0.278113 0.233417 0
M  V30 11 C -1.76368 -0.612842 -0.106564 0
M  V30 12 N -1.42452 -1.96969 -0.281783 0
M  V30 13 N -4.04374 -1.31146 0.393076 0
M  V30 14 H 2.52922 0.504326 1.64879 0
M  V30 15 H 4.08551 1.19036 1.09726 0
M  V30 16 H 4.06226 -0.433862 1.83997 0
M  V30 17 H 4.39763 -0.560236 -0.526302 0
M  V30 18 H 2.88243 -1.40113 -0.0238256 0
M  V30 19 H 2.69481 0.0408074 -2.14493 0
M  V30 20 H 3.41017 1.37488 -1.24128 0
M  V30 21 H 0.488393 -0.688899 -1.55211 0
M  V30 22 H 0.993923 -0.759761 0.151342 0
M  V30 23 H -0.408217 2.4495 -0.220786 0
M  V30 24 H -2.71965 3.09707 0.379354 0
M  V30 25 H -4.42589 1.33678 0.667796 0
M  V30 26 H -1.92988 -2.54246 -0.975172 0
M  V30 27 H -0.669911 -2.38693 0.285465 0
M  V30 28 H -3.91302 -2.24133 -0.0556106 0
M  V30 29 H -4.90711 -1.17969 0.959214 0
M  V30 END ATOM
M  V30 BEGIN BOND
M  V30 1 1 1 2
M  V30 2 1 2 3
M  V30 3 1 3 4
M  V30 4 1 4 5
M  V30 5 1 5 6
M  V30 6 2 6 7
M  V30 7 1 7 8
M  V30 8 2 8 9
M  V30 9 1 9 10
M  V30 10 2 10 11
M  V30 11 1 11 12
M  V30 12 1 10 13
M  V30 13 1 11 6
M  V30 14 1 1 14
M  V30 15 1 1 15
M  V30 16 1 1 16
M  V30 17 1 2 17
M  V30 18 1 2 18
M  V30 19 1 3 19
M  V30 20 1 3 20
M  V30 21 1 5 21
M  V30 22 1 5 22
M  V30 23 1 7 23
M  V30 24 1 8 24
M  V30 25 1 9 25
M  V30 26 1 12 26
M  V30 27 1 12 27
M  V30 28 1 13 28
M  V30 29 1 13 29
M  V30 END BOND
M  V30 END CTAB
M  END
