
     RDKit          3D

  0  0  0  0  0  0  0  0  0  0999 V3000
M  V30 BEGIN CTAB
M  V30 COUNTS 37 38 0 0 0
M  V30 BEGIN ATOM
M  V30 1 N 3.873 -2.48643 0.00743705 0
M  V30 2 C 3.79879 -1.06872 0.113275 0
M  V30 3 N 2.68547 -0.38417 -0.195701 0
M  V30 4 C 2.56701 0.950342 -0.112316 0
M  V30 5 O 1.44042 1.66208 -0.423848 0
M  V30 6 C 0.210889 1.19479 -0.875812 0
M  V30 7 C -0.470666 0.255626 0.0819754 0
M  V30 8 C -1.77076 -0.193555 -0.490385 0
M  V30 9 C -2.48972 -1.16326 0.454712 0
M  V30 10 C -3.90139 -1.3161 -0.0636893 0
M  V30 11 C -4.72455 -0.061668 0.239774 0
M  V30 12 C -3.74264 1.0986 0.302406 0
M  V30 13 C -2.74564 0.868104 -0.842669 0
M  V30 14 C 3.67264 1.69129 0.32545 0
M  V30 15 N 4.79497 1.02269 0.638909 0
M  V30 16 C 4.87839 -0.313579 0.543649 0
M  V30 17 N 6.10425 -0.921984 0.897237 0
M  V30 18 H 4.44327 -2.90867 -0.739674 0
M  V30 19 H 3.36756 -3.11336 0.663275 0
M  V30 20 H -0.409982 2.11328 -1.09335 0
M  V30 21 H 0.379727 0.718459 -1.87189 0
M  V30 22 H -0.571334 0.794786 1.04724 0
M  V30 23 H 0.17223 -0.648471 0.182799 0
M  V30 24 H -1.54068 -0.802281 -1.40002 0
M  V30 25 H -2.43782 -0.835917 1.49805 0
M  V30 26 H -1.99784 -2.15387 0.350697 0
M  V30 27 H -3.82941 -1.41733 -1.16606 0
M  V30 28 H -4.40986 -2.20589 0.346003 0
M  V30 29 H -5.44814 0.153923 -0.559465 0
M  V30 30 H -5.27722 -0.162128 1.19555 0
M  V30 31 H -3.25145 1.20033 1.26739 0
M  V30 32 H -4.28493 2.04339 0.0415212 0
M  V30 33 H -2.36787 1.83402 -1.14532 0
M  V30 34 H -3.39414 0.502613 -1.69445 0
M  V30 35 H 3.58827 2.76516 0.396209 0
M  V30 36 H 6.17673 -1.38588 1.8214 0
M  V30 37 H 6.91245 -0.910623 0.259682 0
M  V30 END ATOM
M  V30 BEGIN BOND
M  V30 1 1 1 2
M  V30 2 2 2 3
M  V30 3 1 3 4
M  V30 4 1 4 5
M  V30 5 1 5 6
M  V30 6 1 6 7
M  V30 7 1 7 8
M  V30 8 1 8 9
M  V30 9 1 9 10
M  V30 10 1 10 11
M  V30 11 1 11 12
M  V30 12 1 12 13
M  V30 13 2 4 14
M  V30 14 1 14 15
M  V30 15 2 15 16
M  V30 16 1 16 17
M  V30 17 1 16 2
M  V30 18 1 13 8
M  V30 19 1 1 18
M  V30 20 1 1 19
M  V30 21 1 6 20
M  V30 22 1 6 21
M  V30 23 1 7 22
M  V30 24 1 7 23
M  V30 25 1 8 24
M  V30 26 1 9 25
M  V30 27 1 9 26
M  V30 28 1 10 27
M  V30 29 1 10 28
M  V30 30 1 11 29
M  V30 31 1 11 30
M  V30 32 1 12 31
M  V30 33 1 12 32
M  V30 34 1 13 33
M  V30 35 1 13 34
M  V30 36 1 14 35
M  V30 37 1 17 36
M  V30 38 1 17 37
M  V30 END BOND
M  V30 END CTAB
M  END
