
     RDKit          3D

  0  0  0  0  0  0  0  0  0  0999 V3000
M  V30 BEGIN CTAB
M  V30 COUNTS 25 25 0 0 0
M  V30 BEGIN ATOM
M  V30 1 O 0.0181256 0.742461 -1.09799 0
M  V30 2 C -0.815109 0.287262 -0.0876652 0
M  V30 3 C -2.05077 -0.308795 -0.691928 0
M  V30 4 C -3.04651 -0.845869 0.339906 0
M  V30 5 C -3.37896 0.329457 -0.510869 0
M  V30 6 C -0.115554 -0.779629 0.749353 0
M  V30 7 N 1.08383 -0.28773 1.37812 0
M  V30 8 C 2.16849 0.0255816 0.531542 0
M  V30 9 N 2.54965 1.23791 0.462253 0
M  V30 10 N 3.57933 1.72147 -0.303292 0
M  V30 11 N 2.80561 -0.979656 -0.210324 0
M  V30 12 H -0.376169 1.54908 -1.49396 0
M  V30 13 H -1.05122 1.17504 0.551126 0
M  V30 14 H -1.90759 -0.915779 -1.61285 0
M  V30 15 H -2.86145 -0.615684 1.4084 0
M  V30 16 H -3.47155 -1.842 0.126764 0
M  V30 17 H -3.48148 1.33262 -0.0432683 0
M  V30 18 H -4.1429 0.137074 -1.29075 0
M  V30 19 H 0.0845691 -1.6423 0.0843429 0
M  V30 20 H -0.799154 -1.13741 1.54382 0
M  V30 21 H 1.11264 -0.180378 2.41752 0
M  V30 22 H 3.8402 1.24262 -1.18218 0
M  V30 23 H 4.10751 2.56361 -0.0208893 0
M  V30 24 H 2.32127 -1.86259 -0.544667 0
M  V30 25 H 3.8272 -0.946372 -0.502519 0
M  V30 END ATOM
M  V30 BEGIN BOND
M  V30 1 1 1 2
M  V30 2 1 2 3
M  V30 3 1 3 4
M  V30 4 1 4 5
M  V30 5 1 2 6
M  V30 6 1 6 7
M  V30 7 1 7 8
M  V30 8 2 8 9 CFG=2
M  V30 9 1 9 10
M  V30 10 1 8 11
M  V30 11 1 5 3
M  V30 12 1 1 12
M  V30 13 1 2 13
M  V30 14 1 3 14
M  V30 15 1 4 15
M  V30 16 1 4 16
M  V30 17 1 5 17
M  V30 18 1 5 18
M  V30 19 1 6 19
M  V30 20 1 6 20
M  V30 21 1 7 21
M  V30 22 1 10 22
M  V30 23 1 10 23
M  V30 24 1 11 24
M  V30 25 1 11 25
M  V30 END BOND
M  V30 END CTAB
M  END
