
     RDKit          3D

  0  0  0  0  0  0  0  0  0  0999 V3000
M  V30 BEGIN CTAB
M  V30 COUNTS 42 43 0 0 0
M  V30 BEGIN ATOM
M  V30 1 N -3.4611 2.1841 0.334196 0
M  V30 2 C -3.28898 1.05603 1.26434 0
M  V30 3 C -2.85023 -0.113714 0.418554 0
M  V30 4 C -3.9847 -0.339409 -0.591099 0
M  V30 5 C -3.65989 -1.71997 -1.09202 0
M  V30 6 C -3.17471 -2.45079 0.133763 0
M  V30 7 C -2.89956 -1.41555 1.18371 0
M  V30 8 N -1.61286 0.0766786 -0.271662 0
M  V30 9 C -0.390272 0.320617 0.373152 0
M  V30 10 O -0.420476 0.367551 1.64395 0
M  V30 11 C 0.889878 0.520272 -0.306757 0
M  V30 12 C 0.968384 0.474843 -1.68169 0
M  V30 13 C 2.22175 0.673755 -2.26948 0
M  V30 14 C 3.36408 0.909367 -1.5495 0
M  V30 15 C 3.24208 0.94745 -0.164372 0
M  V30 16 C 2.02132 0.755436 0.447962 0
M  V30 17 C 4.42046 1.19421 0.683819 0
M  V30 18 S 5.24947 -0.302155 1.14835 0
M  V30 19 O 6.50103 0.0117048 1.91741 0
M  V30 20 O 4.39871 -1.18707 1.99022 0
M  V30 21 N 5.76309 -1.09593 -0.315841 0
M  V30 22 H -4.39876 2.61044 0.43229 0
M  V30 23 H -2.6808 2.86788 0.454255 0
M  V30 24 H -4.33323 0.787779 1.60957 0
M  V30 25 H -2.63707 1.30033 2.10096 0
M  V30 26 H -3.8788 0.421241 -1.3844 0
M  V30 27 H -4.96524 -0.284062 -0.115399 0
M  V30 28 H -2.87173 -1.63213 -1.85921 0
M  V30 29 H -4.60828 -2.15024 -1.49567 0
M  V30 30 H -3.99635 -3.11833 0.477263 0
M  V30 31 H -2.26839 -3.02914 -0.15942 0
M  V30 32 H -3.69392 -1.34471 1.94935 0
M  V30 33 H -1.95401 -1.65776 1.6822 0
M  V30 34 H -1.60798 0.0331534 -1.32635 0
M  V30 35 H 0.113265 0.29432 -2.31599 0
M  V30 36 H 2.33356 0.646448 -3.36326 0
M  V30 37 H 4.33874 1.0655 -1.97283 0
M  V30 38 H 1.91218 0.782992 1.53613 0
M  V30 39 H 4.07467 1.68371 1.61607 0
M  V30 40 H 5.14728 1.87149 0.210983 0
M  V30 41 H 6.62153 -1.66017 -0.0881066 0
M  V30 42 H 6.05586 -0.356174 -0.969855 0
M  V30 END ATOM
M  V30 BEGIN BOND
M  V30 1 1 1 2
M  V30 2 1 2 3
M  V30 3 1 3 4
M  V30 4 1 4 5
M  V30 5 1 5 6
M  V30 6 1 6 7
M  V30 7 1 3 8
M  V30 8 1 8 9
M  V30 9 2 9 10
M  V30 10 1 9 11
M  V30 11 2 11 12
M  V30 12 1 12 13
M  V30 13 2 13 14
M  V30 14 1 14 15
M  V30 15 2 15 16
M  V30 16 1 15 17
M  V30 17 1 17 18
M  V30 18 2 18 19
M  V30 19 2 18 20
M  V30 20 1 18 21
M  V30 21 1 7 3
M  V30 22 1 16 11
M  V30 23 1 1 22
M  V30 24 1 1 23
M  V30 25 1 2 24
M  V30 26 1 2 25
M  V30 27 1 4 26
M  V30 28 1 4 27
M  V30 29 1 5 28
M  V30 30 1 5 29
M  V30 31 1 6 30
M  V30 32 1 6 31
M  V30 33 1 7 32
M  V30 34 1 7 33
M  V30 35 1 8 34
M  V30 36 1 12 35
M  V30 37 1 13 36
M  V30 38 1 14 37
M  V30 39 1 16 38
M  V30 40 1 17 39
M  V30 41 1 17 40
M  V30 42 1 21 41
M  V30 43 1 21 42
M  V30 END BOND
M  V30 END CTAB
M  END
