
     RDKit          3D

  0  0  0  0  0  0  0  0  0  0999 V3000
M  V30 BEGIN CTAB
M  V30 COUNTS 20 21 0 0 0
M  V30 BEGIN ATOM
M  V30 1 N 4.47298 -0.245648 -0.259749 0
M  V30 2 C 3.16935 -0.202979 0.378289 0
M  V30 3 S 2.7964 -0.270179 2.04171 0
M  V30 4 C 1.10177 -0.163805 1.9216 0
M  V30 5 C 0.906701 -0.0791957 0.558197 0
M  V30 6 N 1.98831 -0.103223 -0.183257 0
M  V30 7 C -0.473916 0.0325816 -0.00813804 0
M  V30 8 C -0.62248 0.114414 -1.37121 0
M  V30 9 C -1.90556 0.216376 -1.86196 0
M  V30 10 N -2.94305 0.232215 -1.0163 0
M  V30 11 C -2.79891 0.151353 0.333595 0
M  V30 12 N -1.53733 0.0526886 0.786479 0
M  V30 13 N -3.91944 0.170849 1.20271 0
M  V30 14 H 4.73535 0.572494 -0.840391 0
M  V30 15 H 5.12493 -1.02849 -0.162283 0
M  V30 16 H 0.325185 -0.160295 2.71008 0
M  V30 17 H 0.249085 0.0984108 -2.03098 0
M  V30 18 H -2.03092 0.281548 -2.93985 0
M  V30 19 H -3.95483 -0.525972 1.97085 0
M  V30 20 H -4.68362 0.856857 1.081 0
M  V30 END ATOM
M  V30 BEGIN BOND
M  V30 1 1 1 2
M  V30 2 1 2 3
M  V30 3 1 3 4
M  V30 4 2 4 5
M  V30 5 1 5 6
M  V30 6 1 5 7
M  V30 7 2 7 8
M  V30 8 1 8 9
M  V30 9 2 9 10
M  V30 10 1 10 11
M  V30 11 2 11 12
M  V30 12 1 11 13
M  V30 13 2 6 2
M  V30 14 1 12 7
M  V30 15 1 1 14
M  V30 16 1 1 15
M  V30 17 1 4 16
M  V30 18 1 8 17
M  V30 19 1 9 18
M  V30 20 1 13 19
M  V30 21 1 13 20
M  V30 END BOND
M  V30 END CTAB
M  END
