
     RDKit          3D

  0  0  0  0  0  0  0  0  0  0999 V3000
M  V30 BEGIN CTAB
M  V30 COUNTS 50 55 0 0 0
M  V30 BEGIN ATOM
M  V30 1 N 2.9054 -1.72485 -1.63648 0
M  V30 2 C 2.72186 -0.563072 -0.855136 0
M  V30 3 C 3.64336 0.466945 -0.992633 0
M  V30 4 C 4.71626 0.342997 -1.88265 0
M  V30 5 C 5.64924 1.34667 -2.04343 0
M  V30 6 C 5.50191 2.49684 -1.29608 0
M  V30 7 C 4.44114 2.61051 -0.421009 0
M  V30 8 C 3.50211 1.61916 -0.248786 0
M  V30 9 N 2.4671 1.7176 0.598202 0
M  V30 10 C 1.55916 0.718934 0.742616 0
M  V30 11 C 1.6535 -0.453697 0.0234434 0
M  V30 12 C 0.547444 -1.37153 0.364361 0 CFG=2
M  V30 13 C 1.02774 -2.62558 1.05713 0
M  V30 14 C -0.341718 -1.70803 -0.783874 0
M  V30 15 C -1.60441 -0.936652 -0.598815 0
M  V30 16 C -1.57613 -0.31144 0.612837 0
M  V30 17 C -0.313785 -0.610857 1.31871 0 CFG=2
M  V30 18 C 0.365347 0.682461 1.63669 0
M  V30 19 C -0.559826 -1.35209 2.6169 0
M  V30 20 C -2.65778 0.455478 0.972601 0
M  V30 21 N -2.7511 1.15581 2.2043 0
M  V30 22 C -3.71972 0.556527 0.0921588 0
M  V30 23 C -3.73323 -0.0869693 -1.1392 0
M  V30 24 N -2.63727 -0.83099 -1.44118 0
M  V30 25 C -4.79073 0.0174049 -2.00895 0
M  V30 26 C -5.88593 0.773622 -1.68324 0
M  V30 27 C -5.90829 1.42534 -0.472511 0
M  V30 28 C -4.84057 1.30671 0.380584 0
M  V30 29 H 3.64526 -2.4208 -1.40606 0
M  V30 30 H 2.30943 -1.92469 -2.46674 0
M  V30 31 H 4.78441 -0.587489 -2.44825 0
M  V30 32 H 6.48062 1.2561 -2.73001 0
M  V30 33 H 6.24272 3.28544 -1.42832 0
M  V30 34 H 4.32404 3.51191 0.16604 0
M  V30 35 H 1.92849 -3.05972 0.572276 0
M  V30 36 H 0.222119 -3.39162 0.944811 0
M  V30 37 H 1.29845 -2.44894 2.11887 0
M  V30 38 H 0.0911374 -1.36161 -1.74534 0
M  V30 39 H -0.550263 -2.7888 -0.873287 0
M  V30 40 H -0.247827 1.5809 1.36119 0
M  V30 41 H 0.675508 0.725857 2.7192 0
M  V30 42 H 0.300572 -1.10827 3.29411 0
M  V30 43 H -1.46332 -0.936111 3.11494 0
M  V30 44 H -0.708472 -2.42797 2.48517 0
M  V30 45 H -3.25647 0.673609 3.00021 0
M  V30 46 H -2.36245 2.09379 2.37138 0
M  V30 47 H -4.77896 -0.491299 -2.95978 0
M  V30 48 H -6.74334 0.860678 -2.38377 0
M  V30 49 H -6.7497 2.02811 -0.180995 0
M  V30 50 H -4.82302 1.81366 1.35777 0
M  V30 END ATOM
M  V30 BEGIN BOND
M  V30 1 1 1 2
M  V30 2 2 2 3
M  V30 3 1 3 4
M  V30 4 2 4 5
M  V30 5 1 5 6
M  V30 6 2 6 7
M  V30 7 1 7 8
M  V30 8 2 8 9
M  V30 9 1 9 10
M  V30 10 2 10 11
M  V30 11 1 11 12
M  V30 12 1 12 13 CFG=1
M  V30 13 1 12 14
M  V30 14 1 14 15
M  V30 15 2 15 16
M  V30 16 1 16 17
M  V30 17 1 17 18
M  V30 18 1 17 19 CFG=1
M  V30 19 1 16 20
M  V30 20 1 20 21
M  V30 21 2 20 22
M  V30 22 1 22 23
M  V30 23 2 23 24
M  V30 24 1 23 25
M  V30 25 2 25 26
M  V30 26 1 26 27
M  V30 27 2 27 28
M  V30 28 1 11 2
M  V30 29 1 17 12
M  V30 30 1 28 22
M  V30 31 1 8 3
M  V30 32 1 18 10
M  V30 33 1 24 15
M  V30 34 1 1 29
M  V30 35 1 1 30
M  V30 36 1 4 31
M  V30 37 1 5 32
M  V30 38 1 6 33
M  V30 39 1 7 34
M  V30 40 1 13 35
M  V30 41 1 13 36
M  V30 42 1 13 37
M  V30 43 1 14 38
M  V30 44 1 14 39
M  V30 45 1 18 40
M  V30 46 1 18 41
M  V30 47 1 19 42
M  V30 48 1 19 43
M  V30 49 1 19 44
M  V30 50 1 21 45
M  V30 51 1 21 46
M  V30 52 1 25 47
M  V30 53 1 26 48
M  V30 54 1 27 49
M  V30 55 1 28 50
M  V30 END BOND
M  V30 END CTAB
M  END
