
     RDKit          3D

  0  0  0  0  0  0  0  0  0  0999 V3000
M  V30 BEGIN CTAB
M  V30 COUNTS 49 51 0 0 0
M  V30 BEGIN ATOM
M  V30 1 C 2.85864 -2.20373 -0.711709 0
M  V30 2 S 2.17624 -0.602446 -0.465279 0 CHG=1
M  V30 3 C 1.18106 -0.523396 0.982496 0
M  V30 4 C 0.047648 -1.53675 0.807243 0
M  V30 5 O -0.679244 -1.1982 -0.306586 0
M  V30 6 C -2.01296 -1.37062 -0.0469836 0
M  V30 7 C -2.12369 -0.873357 1.40076 0
M  V30 8 C -0.874513 -1.53182 1.99368 0
M  V30 9 O -1.24054 -2.82401 2.36507 0
M  V30 10 O -1.96402 0.508072 1.43738 0
M  V30 11 N -2.81291 -0.510885 -0.90995 0
M  V30 12 C -2.33684 0.136299 -1.98769 0
M  V30 13 N -3.34848 0.829052 -2.53728 0
M  V30 14 C -4.44861 0.612084 -1.80253 0
M  V30 15 C -4.12359 -0.236669 -0.766103 0
M  V30 16 N -5.05312 -0.623497 0.134102 0
M  V30 17 C -6.2987 -0.145505 -0.027778 0
M  V30 18 N -6.63501 0.682644 -1.03144 0
M  V30 19 C -5.735 1.08704 -1.94404 0
M  V30 20 N -6.09232 1.96346 -3.00571 0
M  V30 21 C 3.3983 0.682459 -0.519175 0
M  V30 22 C 4.45086 0.537519 0.50889 0
M  V30 23 C 5.46302 1.6329 0.409224 0
M  V30 24 C 4.98658 3.00121 0.612113 0
M  V30 25 O 3.82967 3.37468 0.749584 0
M  V30 26 O 5.99252 3.99559 0.651504 0 CHG=-1
M  V30 27 N 6.0966 1.63545 -0.922017 0
M  V30 28 H 3.70677 -2.13481 -1.40915 0
M  V30 29 H 2.08139 -2.83491 -1.21745 0
M  V30 30 H 3.14493 -2.70286 0.234913 0
M  V30 31 H 1.73313 -0.750185 1.91404 0
M  V30 32 H 0.746392 0.47832 1.06812 0
M  V30 33 H 0.440306 -2.55989 0.69353 0
M  V30 34 H -2.36056 -2.40523 -0.0417483 0
M  V30 35 H -3.03943 -1.22507 1.87564 0
M  V30 36 H -0.485787 -0.965264 2.85274 0
M  V30 37 H -1.99523 -3.17353 1.827 0
M  V30 38 H -1.74658 0.896727 0.56906 0
M  V30 39 H -1.2999 0.106458 -2.35846 0
M  V30 40 H -7.10676 -0.417672 0.666779 0
M  V30 41 H -6.95222 2.54805 -2.93628 0
M  V30 42 H -5.50219 2.03252 -3.86301 0
M  V30 43 H 3.85325 0.638414 -1.5328 0
M  V30 44 H 2.85756 1.62357 -0.416019 0
M  V30 45 H 4.01373 0.61373 1.53951 0
M  V30 46 H 4.96725 -0.449683 0.493005 0
M  V30 47 H 6.32831 1.48447 1.10126 0
M  V30 48 H 6.47866 0.698501 -1.15226 0
M  V30 49 H 5.43538 2.00078 -1.64115 0
M  V30 END ATOM
M  V30 BEGIN BOND
M  V30 1 1 1 2
M  V30 2 1 2 3
M  V30 3 1 3 4
M  V30 4 1 4 5
M  V30 5 1 5 6
M  V30 6 1 6 7
M  V30 7 1 7 8
M  V30 8 1 8 9
M  V30 9 1 7 10
M  V30 10 1 6 11
M  V30 11 1 11 12
M  V30 12 2 12 13
M  V30 13 1 13 14
M  V30 14 2 14 15
M  V30 15 1 15 16
M  V30 16 2 16 17
M  V30 17 1 17 18
M  V30 18 2 18 19
M  V30 19 1 19 20
M  V30 20 1 2 21
M  V30 21 1 21 22
M  V30 22 1 22 23
M  V30 23 1 23 24
M  V30 24 2 24 25
M  V30 25 1 24 26
M  V30 26 1 23 27
M  V30 27 1 8 4
M  V30 28 1 15 11
M  V30 29 1 19 14
M  V30 30 1 1 28
M  V30 31 1 1 29
M  V30 32 1 1 30
M  V30 33 1 3 31
M  V30 34 1 3 32
M  V30 35 1 4 33
M  V30 36 1 6 34
M  V30 37 1 7 35
M  V30 38 1 8 36
M  V30 39 1 9 37
M  V30 40 1 10 38
M  V30 41 1 12 39
M  V30 42 1 17 40
M  V30 43 1 20 41
M  V30 44 1 20 42
M  V30 45 1 21 43
M  V30 46 1 21 44
M  V30 47 1 22 45
M  V30 48 1 22 46
M  V30 49 1 23 47
M  V30 50 1 27 48
M  V30 51 1 27 49
M  V30 END BOND
M  V30 END CTAB
M  END
