
     RDKit          3D

  0  0  0  0  0  0  0  0  0  0999 V3000
M  V30 BEGIN CTAB
M  V30 COUNTS 21 21 0 0 0
M  V30 BEGIN ATOM
M  V30 1 C 3.6575 -0.319762 -0.128662 0
M  V30 2 N 2.26324 -0.281828 -0.585363 0
M  V30 3 C 1.47527 0.0365722 0.607088 0
M  V30 4 C 0.0266084 0.108052 0.289229 0
M  V30 5 N -0.589839 1.24102 -0.0929467 0
M  V30 6 C -1.89206 1.32624 -0.383363 0
M  V30 7 N -2.48672 2.57672 -0.787279 0
M  V30 8 N -2.64318 0.210236 -0.289939 0
M  V30 9 C -2.05727 -0.940461 0.0898429 0
M  V30 10 N -0.744711 -0.997287 0.376056 0
M  V30 11 N -2.85748 -2.10655 0.184255 0
M  V30 12 H 3.64097 -0.894258 0.82599 0
M  V30 13 H 3.94747 0.731289 0.0765745 0
M  V30 14 H 4.3063 -0.818591 -0.85613 0
M  V30 15 H 1.99754 -1.21284 -0.975787 0
M  V30 16 H 1.83937 1.05637 0.928695 0
M  V30 17 H 1.71148 -0.684144 1.39132 0
M  V30 18 H -1.89285 3.42886 -0.746811 0
M  V30 19 H -3.46391 2.58909 -1.09821 0
M  V30 20 H -3.6229 -2.16005 0.86777 0
M  V30 21 H -2.61484 -2.88869 -0.478839 0
M  V30 END ATOM
M  V30 BEGIN BOND
M  V30 1 1 1 2
M  V30 2 1 2 3
M  V30 3 1 3 4
M  V30 4 2 4 5
M  V30 5 1 5 6
M  V30 6 1 6 7
M  V30 7 2 6 8
M  V30 8 1 8 9
M  V30 9 2 9 10
M  V30 10 1 9 11
M  V30 11 1 10 4
M  V30 12 1 1 12
M  V30 13 1 1 13
M  V30 14 1 1 14
M  V30 15 1 2 15
M  V30 16 1 3 16
M  V30 17 1 3 17
M  V30 18 1 7 18
M  V30 19 1 7 19
M  V30 20 1 11 20
M  V30 21 1 11 21
M  V30 END BOND
M  V30 END CTAB
M  END
