
     RDKit          3D

  0  0  0  0  0  0  0  0  0  0999 V3000
M  V30 BEGIN CTAB
M  V30 COUNTS 62 65 0 0 0
M  V30 BEGIN ATOM
M  V30 1 N 8.88284 2.06369 -0.755169 0
M  V30 2 C 7.691 1.28994 -0.711057 0
M  V30 3 N 7.53359 0.277696 0.175057 0
M  V30 4 C 6.41472 -0.463129 0.230445 0
M  V30 5 O 6.30117 -1.39704 1.06665 0
M  V30 6 N 5.36344 -0.271474 -0.576207 0
M  V30 7 C 5.50002 0.745791 -1.47948 0
M  V30 8 C 6.62994 1.52149 -1.56208 0
M  V30 9 C 4.15513 -0.967658 -0.617897 0 CFG=2
M  V30 10 O 3.02629 -0.20619 -0.231591 0
M  V30 11 C 1.95755 -1.06583 -0.266722 0 CFG=2
M  V30 12 C 1.11982 -0.826649 0.990685 0
M  V30 13 O 0.714998 0.500284 0.940754 0
M  V30 14 P -0.217707 0.859495 2.29033 0
M  V30 15 O 0.0326621 -0.360931 3.46082 0
M  V30 16 O 0.204139 2.16788 2.93326 0
M  V30 17 O -1.84705 0.896134 1.93837 0
M  V30 18 C -2.1467 1.5047 0.729108 0 CFG=2
M  V30 19 C -3.20591 2.54867 1.00172 0 CFG=1
M  V30 20 C -2.95418 3.715 0.0519404 0
M  V30 21 O -1.67872 4.22421 0.345438 0
M  V30 22 O -4.43107 1.96994 0.804541 0
M  V30 23 C -4.27722 0.6082 0.74129 0 CFG=2
M  V30 24 C -2.97622 0.484621 -0.064515 0 CFG=2
M  V30 25 O -2.44407 -0.77882 -0.000853147 0
M  V30 26 N -5.36147 -0.0783103 0.133672 0
M  V30 27 C -5.55119 -1.38419 0.419168 0
M  V30 28 C -6.58197 -2.11782 -0.131729 0
M  V30 29 C -7.44792 -1.49714 -1.00328 0
M  V30 30 N -8.54297 -2.20969 -1.61056 0
M  V30 31 N -7.2311 -0.194601 -1.26682 0
M  V30 32 C -6.20913 0.496747 -0.70874 0
M  V30 33 O -6.07276 1.70521 -1.00311 0
M  V30 34 C 2.48388 -2.48766 -0.174698 0 CFG=1
M  V30 35 O 2.45558 -3.0361 -1.43237 0
M  V30 36 C 3.96638 -2.19776 0.152988 0 CFG=1
M  V30 37 O 4.65564 -3.31614 -0.320178 0
M  V30 38 H 9.46868 2.16923 -1.60444 0
M  V30 39 H 9.18638 2.5514 0.108943 0
M  V30 40 H 4.70288 0.989369 -2.18614 0
M  V30 41 H 6.74197 2.33082 -2.27878 0
M  V30 42 H 3.93655 -1.21622 -1.70043 0
M  V30 43 H 1.32066 -0.919227 -1.15187 0
M  V30 44 H 1.75883 -1.03527 1.86721 0
M  V30 45 H 0.283895 -1.52797 1.00472 0
M  V30 46 H -0.04401 -1.26497 3.05922 0
M  V30 47 H -1.29349 1.87352 0.175029 0
M  V30 48 H -3.09673 2.96821 2.0317 0
M  V30 49 H -2.87049 3.27932 -0.977251 0
M  V30 50 H -3.73935 4.47998 0.125472 0
M  V30 51 H -1.27589 4.6912 -0.431298 0
M  V30 52 H -4.03078 0.253241 1.77354 0
M  V30 53 H -3.10282 0.882836 -1.08196 0
M  V30 54 H -2.62658 -1.22821 -0.879939 0
M  V30 55 H -4.87721 -1.89814 1.10772 0
M  V30 56 H -6.75247 -3.16419 0.0828102 0
M  V30 57 H -8.39296 -2.77805 -2.46209 0
M  V30 58 H -9.47866 -2.13039 -1.16361 0
M  V30 59 H 2.00973 -3.07436 0.609851 0
M  V30 60 H 3.10352 -3.74454 -1.60078 0
M  V30 61 H 3.96867 -2.11085 1.25137 0
M  V30 62 H 5.18824 -3.0993 -1.11375 0
M  V30 END ATOM
M  V30 BEGIN BOND
M  V30 1 1 1 2
M  V30 2 2 2 3
M  V30 3 1 3 4
M  V30 4 2 4 5
M  V30 5 1 4 6
M  V30 6 1 6 7
M  V30 7 2 7 8
M  V30 8 1 6 9
M  V30 9 1 9 10
M  V30 10 1 10 11
M  V30 11 1 11 12
M  V30 12 1 12 13
M  V30 13 1 13 14
M  V30 14 1 14 15
M  V30 15 2 14 16
M  V30 16 1 14 17
M  V30 17 1 17 18
M  V30 18 1 18 19
M  V30 19 1 19 20
M  V30 20 1 20 21
M  V30 21 1 19 22
M  V30 22 1 22 23
M  V30 23 1 23 24
M  V30 24 1 24 25
M  V30 25 1 23 26
M  V30 26 1 26 27
M  V30 27 2 27 28
M  V30 28 1 28 29
M  V30 29 1 29 30
M  V30 30 2 29 31
M  V30 31 1 31 32
M  V30 32 2 32 33
M  V30 33 1 11 34
M  V30 34 1 34 35
M  V30 35 1 34 36
M  V30 36 1 36 37
M  V30 37 1 8 2
M  V30 38 1 36 9
M  V30 39 1 24 18
M  V30 40 1 32 26
M  V30 41 1 1 38
M  V30 42 1 1 39
M  V30 43 1 7 40
M  V30 44 1 8 41
M  V30 45 1 9 42 CFG=3
M  V30 46 1 11 43 CFG=3
M  V30 47 1 12 44
M  V30 48 1 12 45
M  V30 49 1 15 46
M  V30 50 1 18 47 CFG=3
M  V30 51 1 19 48 CFG=1
M  V30 52 1 20 49
M  V30 53 1 20 50
M  V30 54 1 21 51
M  V30 55 1 23 52 CFG=1
M  V30 56 1 24 53 CFG=3
M  V30 57 1 25 54
M  V30 58 1 27 55
M  V30 59 1 28 56
M  V30 60 1 30 57
M  V30 61 1 30 58
M  V30 62 1 34 59 CFG=1
M  V30 63 1 35 60
M  V30 64 1 36 61 CFG=1
M  V30 65 1 37 62
M  V30 END BOND
M  V30 END CTAB
M  END
