
     RDKit          3D

  0  0  0  0  0  0  0  0  0  0999 V3000
M  V30 BEGIN CTAB
M  V30 COUNTS 24 24 0 0 0
M  V30 BEGIN ATOM
M  V30 1 N 3.05458 -1.13167 1.59446 0
M  V30 2 C 1.99353 -0.594145 0.818907 0
M  V30 3 N 0.826987 -1.27958 0.643366 0
M  V30 4 C -0.173142 -0.736482 -0.106962 0
M  V30 5 N -1.39567 -1.42687 -0.335535 0
M  V30 6 C -2.50178 -0.890482 -1.054 0
M  V30 7 C -3.26236 0.171596 -0.367737 0
M  V30 8 C -3.02872 0.633803 0.840473 0
M  V30 9 Br -4.74087 0.956013 -1.33807 0
M  V30 10 C -0.0160575 0.496657 -0.688984 0
M  V30 11 C 1.18338 1.19729 -0.506064 0
M  V30 12 C 2.18969 0.643112 0.253238 0
M  V30 13 N 3.40851 1.32873 0.453061 0
M  V30 14 H 4.06241 -0.959238 1.3756 0
M  V30 15 H 2.83695 -1.72207 2.41561 0
M  V30 16 H -1.43153 -2.41221 0.0828442 0
M  V30 17 H -2.18496 -0.505844 -2.04393 0
M  V30 18 H -3.21417 -1.72767 -1.27898 0
M  V30 19 H -3.64863 1.41692 1.24967 0
M  V30 20 H -2.23018 0.268073 1.48518 0
M  V30 21 H -0.797901 0.92283 -1.28695 0
M  V30 22 H 1.29517 2.16404 -0.967234 0
M  V30 23 H 4.21009 1.16416 -0.182359 0
M  V30 24 H 3.5647 2.02303 1.23423 0
M  V30 END ATOM
M  V30 BEGIN BOND
M  V30 1 1 1 2
M  V30 2 2 2 3
M  V30 3 1 3 4
M  V30 4 1 4 5
M  V30 5 1 5 6
M  V30 6 1 6 7
M  V30 7 2 7 8 CFG=2
M  V30 8 1 7 9
M  V30 9 2 4 10
M  V30 10 1 10 11
M  V30 11 2 11 12
M  V30 12 1 12 13
M  V30 13 1 12 2
M  V30 14 1 1 14
M  V30 15 1 1 15
M  V30 16 1 5 16
M  V30 17 1 6 17
M  V30 18 1 6 18
M  V30 19 1 8 19
M  V30 20 1 8 20
M  V30 21 1 10 21
M  V30 22 1 11 22
M  V30 23 1 13 23
M  V30 24 1 13 24
M  V30 END BOND
M  V30 END CTAB
M  END
