
     RDKit          3D

  0  0  0  0  0  0  0  0  0  0999 V3000
M  V30 BEGIN CTAB
M  V30 COUNTS 55 57 0 0 0
M  V30 BEGIN ATOM
M  V30 1 C -1.00575 -3.53963 2.64724 0
M  V30 2 O -1.34813 -3.05494 1.36413 0
M  V30 3 C -0.372399 -2.46003 0.582016 0
M  V30 4 C 0.933393 -2.35091 1.07386 0
M  V30 5 C 1.9206 -1.76368 0.309611 0
M  V30 6 C 1.63382 -1.27748 -0.944751 0
M  V30 7 O 2.56307 -0.690827 -1.73243 0
M  V30 8 C 3.89686 -0.389475 -1.60043 0
M  V30 9 C 4.20088 0.593885 -0.506843 0
M  V30 10 C 5.71918 0.823256 -0.501655 0
M  V30 11 C 6.06675 1.80743 0.589282 0
M  V30 12 C 7.5549 2.04051 0.603253 0
M  V30 13 O 8.10978 2.91543 1.52555 0
M  V30 14 O 8.27367 1.42517 -0.237274 0
M  V30 15 C 0.334098 -1.38246 -1.44411 0
M  V30 16 C -0.652851 -1.96831 -0.681993 0
M  V30 17 C -2.04412 -2.12599 -1.20925 0
M  V30 18 C -3.07767 -1.25826 -0.65743 0
M  V30 19 C -3.22219 0.081476 -1.0174 0
M  V30 20 C -2.43351 0.66224 -2.13228 0
M  V30 21 C -4.20979 0.821705 -0.378356 0
M  V30 22 C -4.40994 2.14898 -0.6421 0
M  V30 23 N -3.60146 2.83832 -1.55706 0
M  V30 24 N -5.38526 2.82082 0.0285354 0
M  V30 25 C -6.183 2.28321 0.946248 0
M  V30 26 N -7.19924 3.06845 1.60877 0
M  V30 27 N -6.00829 0.991754 1.22612 0
M  V30 28 C -5.05313 0.265165 0.593495 0
M  V30 29 N -4.87892 -1.02259 0.897713 0
M  V30 30 C -3.94966 -1.77218 0.321245 0
M  V30 31 H -0.548997 -2.71242 3.21871 0
M  V30 32 H -0.183211 -4.29846 2.49753 0
M  V30 33 H -1.8703 -3.99105 3.16959 0
M  V30 34 H 1.12709 -2.7442 2.06495 0
M  V30 35 H 2.92666 -1.71778 0.726839 0
M  V30 36 H 4.508 -1.31969 -1.35257 0
M  V30 37 H 4.35311 -0.0320081 -2.56097 0
M  V30 38 H 3.70872 1.5657 -0.782377 0
M  V30 39 H 3.9565 0.283814 0.510975 0
M  V30 40 H 6.03857 1.16185 -1.49031 0
M  V30 41 H 6.15798 -0.157411 -0.205968 0
M  V30 42 H 5.59321 2.8007 0.41432 0
M  V30 43 H 5.71527 1.46488 1.58138 0
M  V30 44 H 8.90045 3.4988 1.21546 0
M  V30 45 H 0.142513 -1.00171 -2.44379 0
M  V30 46 H -2.31454 -3.19469 -0.910336 0
M  V30 47 H -2.05588 -2.2005 -2.33103 0
M  V30 48 H -1.51753 1.15691 -1.89448 0
M  V30 49 H -3.05132 1.052 -2.98181 0
M  V30 50 H -2.08365 -0.277321 -2.69909 0
M  V30 51 H -2.64026 3.12242 -1.28066 0
M  V30 52 H -3.93248 3.09902 -2.50318 0
M  V30 53 H -7.98378 3.43667 1.01702 0
M  V30 54 H -7.19631 3.28182 2.60829 0
M  V30 55 H -3.92147 -2.80841 0.621482 0
M  V30 END ATOM
M  V30 BEGIN BOND
M  V30 1 1 1 2
M  V30 2 1 2 3
M  V30 3 2 3 4
M  V30 4 1 4 5
M  V30 5 2 5 6
M  V30 6 1 6 7
M  V30 7 1 7 8
M  V30 8 1 8 9
M  V30 9 1 9 10
M  V30 10 1 10 11
M  V30 11 1 11 12
M  V30 12 1 12 13
M  V30 13 2 12 14
M  V30 14 1 6 15
M  V30 15 2 15 16
M  V30 16 1 16 17
M  V30 17 1 17 18
M  V30 18 2 18 19
M  V30 19 1 19 20
M  V30 20 1 19 21
M  V30 21 2 21 22
M  V30 22 1 22 23
M  V30 23 1 22 24
M  V30 24 2 24 25
M  V30 25 1 25 26
M  V30 26 1 25 27
M  V30 27 2 27 28
M  V30 28 1 28 29
M  V30 29 2 29 30
M  V30 30 1 16 3
M  V30 31 1 30 18
M  V30 32 1 28 21
M  V30 33 1 1 31
M  V30 34 1 1 32
M  V30 35 1 1 33
M  V30 36 1 4 34
M  V30 37 1 5 35
M  V30 38 1 8 36
M  V30 39 1 8 37
M  V30 40 1 9 38
M  V30 41 1 9 39
M  V30 42 1 10 40
M  V30 43 1 10 41
M  V30 44 1 11 42
M  V30 45 1 11 43
M  V30 46 1 13 44
M  V30 47 1 15 45
M  V30 48 1 17 46
M  V30 49 1 17 47
M  V30 50 1 20 48
M  V30 51 1 20 49
M  V30 52 1 20 50
M  V30 53 1 23 51
M  V30 54 1 23 52
M  V30 55 1 26 53
M  V30 56 1 26 54
M  V30 57 1 30 55
M  V30 END BOND
M  V30 END CTAB
M  END
