
     RDKit          3D

  0  0  0  0  0  0  0  0  0  0999 V3000
M  V30 BEGIN CTAB
M  V30 COUNTS 62 66 0 0 0
M  V30 BEGIN ATOM
M  V30 1 C 0.252256 6.25969 2.40448 0
M  V30 2 C 0.229592 4.80902 2.01578 0
M  V30 3 C -0.707531 4.32865 1.12731 0
M  V30 4 C -0.77841 3.01767 0.733625 0
M  V30 5 C 0.132646 2.12289 1.24852 0
M  V30 6 C 1.07017 2.58971 2.13433 0
M  V30 7 C 1.136 3.90654 2.52534 0
M  V30 8 C 0.140324 0.706908 0.860366 0
M  V30 9 C -1.16287 0.0358683 0.747515 0
M  V30 10 C -2.0842 -0.137314 1.80413 0
M  V30 11 C -1.91978 0.326087 3.19304 0
M  V30 12 N -3.15988 -0.806473 1.36047 0
M  V30 13 N -3.01492 -1.08342 0.103357 0
M  V30 14 C -1.80829 -0.584587 -0.301178 0
M  V30 15 N -1.36581 -0.744796 -1.61432 0
M  V30 16 C -3.97044 -1.7873 -0.687068 0
M  V30 17 C -5.33064 -1.47661 -0.616162 0
M  V30 18 C -6.2707 -2.14334 -1.37204 0
M  V30 19 C -5.8936 -3.15188 -2.23413 0
M  V30 20 C -4.55224 -3.46638 -2.31127 0
M  V30 21 C -3.61996 -2.79858 -1.55557 0
M  V30 22 C 1.19836 0.292291 -0.0550153 0
M  V30 23 C 1.52101 0.868391 -1.27854 0
M  V30 24 C 0.966934 2.05269 -1.96555 0
M  V30 25 N 2.52924 0.120219 -1.76101 0
M  V30 26 N 2.85393 -0.860901 -0.943102 0
M  V30 27 C 2.06784 -0.79954 0.118062 0
M  V30 28 N 2.08948 -1.67573 1.23884 0
M  V30 29 C 3.87201 -1.85655 -1.1122 0
M  V30 30 C 4.79831 -2.14092 -0.130962 0
M  V30 31 C 5.75406 -3.11603 -0.363639 0
M  V30 32 C 5.77419 -3.79396 -1.56916 0
M  V30 33 C 4.83826 -3.5023 -2.55259 0
M  V30 34 C 3.88633 -2.52777 -2.31483 0
M  V30 35 H 0.800179 6.77095 1.56719 0
M  V30 36 H -0.762331 6.66129 2.54942 0
M  V30 37 H 0.893658 6.33138 3.30133 0
M  V30 38 H -1.42697 5.03016 0.718851 0
M  V30 39 H -1.53941 2.66609 0.0227884 0
M  V30 40 H 1.82502 1.91442 2.57836 0
M  V30 41 H 1.88097 4.27762 3.22805 0
M  V30 42 H 0.504792 0.238368 1.87575 0
M  V30 43 H -1.59784 1.3794 3.27742 0
M  V30 44 H -1.1342 -0.341056 3.65482 0
M  V30 45 H -2.85546 0.206605 3.76478 0
M  V30 46 H -0.589752 -1.42321 -1.82908 0
M  V30 47 H -1.75835 -0.224359 -2.436 0
M  V30 48 H -5.64498 -0.679184 0.0631183 0
M  V30 49 H -7.32679 -1.91718 -1.33118 0
M  V30 50 H -6.62192 -3.69393 -2.84316 0
M  V30 51 H -4.23215 -4.26148 -2.98659 0
M  V30 52 H -2.55867 -3.04571 -1.61482 0
M  V30 53 H -0.112935 2.01684 -2.14218 0
M  V30 54 H 1.32569 3.02322 -1.56913 0
M  V30 55 H 1.39812 2.0434 -3.01341 0
M  V30 56 H 2.05045 -2.72617 1.08362 0
M  V30 57 H 2.1418 -1.37314 2.22529 0
M  V30 58 H 4.7777 -1.60034 0.823264 0
M  V30 59 H 6.48138 -3.32494 0.433382 0
M  V30 60 H 6.54659 -4.55389 -1.70726 0
M  V30 61 H 4.90194 -4.05891 -3.46459 0
M  V30 62 H 3.16183 -2.31847 -3.10685 0
M  V30 END ATOM
M  V30 BEGIN BOND
M  V30 1 1 1 2
M  V30 2 2 2 3
M  V30 3 1 3 4
M  V30 4 2 4 5
M  V30 5 1 5 6
M  V30 6 2 6 7
M  V30 7 1 5 8
M  V30 8 1 8 9
M  V30 9 1 9 10
M  V30 10 1 10 11
M  V30 11 2 10 12
M  V30 12 1 12 13
M  V30 13 1 13 14
M  V30 14 1 14 15
M  V30 15 1 13 16
M  V30 16 2 16 17
M  V30 17 1 17 18
M  V30 18 2 18 19
M  V30 19 1 19 20
M  V30 20 2 20 21
M  V30 21 1 8 22
M  V30 22 1 22 23
M  V30 23 1 23 24
M  V30 24 2 23 25
M  V30 25 1 25 26
M  V30 26 1 26 27
M  V30 27 1 27 28
M  V30 28 1 26 29
M  V30 29 2 29 30
M  V30 30 1 30 31
M  V30 31 2 31 32
M  V30 32 1 32 33
M  V30 33 2 33 34
M  V30 34 1 7 2
M  V30 35 2 14 9
M  V30 36 1 21 16
M  V30 37 2 27 22
M  V30 38 1 34 29
M  V30 39 1 1 35
M  V30 40 1 1 36
M  V30 41 1 1 37
M  V30 42 1 3 38
M  V30 43 1 4 39
M  V30 44 1 6 40
M  V30 45 1 7 41
M  V30 46 1 8 42
M  V30 47 1 11 43
M  V30 48 1 11 44
M  V30 49 1 11 45
M  V30 50 1 15 46
M  V30 51 1 15 47
M  V30 52 1 17 48
M  V30 53 1 18 49
M  V30 54 1 19 50
M  V30 55 1 20 51
M  V30 56 1 21 52
M  V30 57 1 24 53
M  V30 58 1 24 54
M  V30 59 1 24 55
M  V30 60 1 28 56
M  V30 61 1 28 57
M  V30 62 1 30 58
M  V30 63 1 31 59
M  V30 64 1 32 60
M  V30 65 1 33 61
M  V30 66 1 34 62
M  V30 END BOND
M  V30 END CTAB
M  END
