
     RDKit          3D

  0  0  0  0  0  0  0  0  0  0999 V3000
M  V30 BEGIN CTAB
M  V30 COUNTS 35 34 0 0 0
M  V30 BEGIN ATOM
M  V30 1 C 3.85689 -0.58383 0.466259 0
M  V30 2 C 2.66734 -1.11283 1.24529 0
M  V30 3 O 1.48618 -1.00559 0.491825 0
M  V30 4 C 1.24856 0.319545 0.173833 0
M  V30 5 C 0.00530759 0.472995 -0.624561 0
M  V30 6 C -1.25334 0.050081 0.0323042 0
M  V30 7 C -1.56628 0.797787 1.30329 0
M  V30 8 N -2.81575 0.292998 1.84501 0
M  V30 9 C -1.39023 -1.4171 0.288786 0
M  V30 10 C -1.3367 -2.26118 -0.967849 0
M  V30 11 C -0.0778924 1.91825 -1.06507 0
M  V30 12 N -1.19078 2.15963 -1.94561 0
M  V30 13 O 0.154072 -0.270126 -1.80676 0
M  V30 14 H 4.0247 0.48761 0.618621 0
M  V30 15 H 3.6803 -0.858139 -0.593826 0
M  V30 16 H 4.74297 -1.12963 0.835899 0
M  V30 17 H 2.83746 -2.20231 1.38571 0
M  V30 18 H 2.56293 -0.587862 2.2212 0
M  V30 19 H 2.10347 0.639422 -0.483045 0
M  V30 20 H 1.30021 0.991157 1.0555 0
M  V30 21 H -2.08998 0.317592 -0.681325 0
M  V30 22 H -0.783347 0.56168 2.06635 0
M  V30 23 H -1.68847 1.87733 1.1627 0
M  V30 24 H -3.18942 0.877994 2.60975 0
M  V30 25 H -3.5609 0.210878 1.1287 0
M  V30 26 H -2.4451 -1.55883 0.678005 0
M  V30 27 H -0.75345 -1.81317 1.09018 0
M  V30 28 H -0.32284 -2.61094 -1.21461 0
M  V30 29 H -1.84103 -1.71142 -1.78713 0
M  V30 30 H -1.94692 -3.20295 -0.843832 0
M  V30 31 H -0.0790555 2.61906 -0.186267 0
M  V30 32 H 0.867222 2.13954 -1.61048 0
M  V30 33 H -0.887978 2.57821 -2.8664 0
M  V30 34 H -1.86132 2.87326 -1.54229 0
M  V30 35 H -0.456832 0.140888 -2.48015 0
M  V30 END ATOM
M  V30 BEGIN BOND
M  V30 1 1 1 2
M  V30 2 1 2 3
M  V30 3 1 3 4
M  V30 4 1 4 5
M  V30 5 1 5 6
M  V30 6 1 6 7
M  V30 7 1 7 8
M  V30 8 1 6 9
M  V30 9 1 9 10
M  V30 10 1 5 11
M  V30 11 1 11 12
M  V30 12 1 5 13
M  V30 13 1 1 14
M  V30 14 1 1 15
M  V30 15 1 1 16
M  V30 16 1 2 17
M  V30 17 1 2 18
M  V30 18 1 4 19
M  V30 19 1 4 20
M  V30 20 1 6 21
M  V30 21 1 7 22
M  V30 22 1 7 23
M  V30 23 1 8 24
M  V30 24 1 8 25
M  V30 25 1 9 26
M  V30 26 1 9 27
M  V30 27 1 10 28
M  V30 28 1 10 29
M  V30 29 1 10 30
M  V30 30 1 11 31
M  V30 31 1 11 32
M  V30 32 1 12 33
M  V30 33 1 12 34
M  V30 34 1 13 35
M  V30 END BOND
M  V30 END CTAB
M  END
