
     RDKit          3D

  0  0  0  0  0  0  0  0  0  0999 V3000
M  V30 BEGIN CTAB
M  V30 COUNTS 34 34 0 0 0
M  V30 BEGIN ATOM
M  V30 1 N -1.74276 3.7625 1.74212 0
M  V30 2 S -2.06904 2.91669 0.272469 0
M  V30 3 O -2.23101 3.87545 -0.87694 0
M  V30 4 O -3.40786 2.21942 0.452054 0
M  V30 5 O -0.903105 1.76005 -0.0328429 0
M  V30 6 C -1.40009 0.473388 0.202806 0
M  V30 7 C -0.243538 -0.49358 -0.110742 0
M  V30 8 C -0.730231 -1.9275 0.0933616 0
M  V30 9 O -1.76017 -2.11839 -0.827772 0
M  V30 10 S -2.40508 -3.66554 -0.725355 0
M  V30 11 N -2.91468 -4.04988 0.866541 0
M  V30 12 O -1.41023 -4.69984 -1.2101 0
M  V30 13 O -3.59277 -3.69529 -1.67346 0
M  V30 14 O 0.787605 -0.161747 0.744123 0
M  V30 15 C 2.00048 0.338239 0.356654 0
M  V30 16 C 2.90037 0.60618 1.37823 0
M  V30 17 C 4.13408 1.10848 1.06386 0
M  V30 18 C 4.55284 1.37158 -0.219635 0
M  V30 19 C 3.65702 1.10452 -1.23235 0
M  V30 20 C 2.38765 0.590082 -0.939097 0
M  V30 21 H -1.20877 4.63149 1.51011 0
M  V30 22 H -2.6464 3.99526 2.21137 0
M  V30 23 H -1.69968 0.400495 1.25645 0
M  V30 24 H -2.19561 0.260616 -0.522363 0
M  V30 25 H -0.0130332 -0.321236 -1.16461 0
M  V30 26 H -1.15468 -2.07968 1.08877 0
M  V30 27 H 0.124316 -2.6141 -0.0689635 0
M  V30 28 H -3.19556 -5.03497 0.894687 0
M  V30 29 H -2.25512 -3.7359 1.58492 0
M  V30 30 H 2.64677 0.425891 2.42194 0
M  V30 31 H 4.82019 1.30803 1.90279 0
M  V30 32 H 5.54733 1.77376 -0.438512 0
M  V30 33 H 3.91253 1.28334 -2.24792 0
M  V30 34 H 1.70825 0.392186 -1.76627 0
M  V30 END ATOM
M  V30 BEGIN BOND
M  V30 1 1 1 2
M  V30 2 2 2 3
M  V30 3 2 2 4
M  V30 4 1 2 5
M  V30 5 1 5 6
M  V30 6 1 6 7
M  V30 7 1 7 8
M  V30 8 1 8 9
M  V30 9 1 9 10
M  V30 10 1 10 11
M  V30 11 2 10 12
M  V30 12 2 10 13
M  V30 13 1 7 14
M  V30 14 1 14 15
M  V30 15 2 15 16
M  V30 16 1 16 17
M  V30 17 2 17 18
M  V30 18 1 18 19
M  V30 19 2 19 20
M  V30 20 1 20 15
M  V30 21 1 1 21
M  V30 22 1 1 22
M  V30 23 1 6 23
M  V30 24 1 6 24
M  V30 25 1 7 25
M  V30 26 1 8 26
M  V30 27 1 8 27
M  V30 28 1 11 28
M  V30 29 1 11 29
M  V30 30 1 16 30
M  V30 31 1 17 31
M  V30 32 1 18 32
M  V30 33 1 19 33
M  V30 34 1 20 34
M  V30 END BOND
M  V30 END CTAB
M  END
