
     RDKit          3D

  0  0  0  0  0  0  0  0  0  0999 V3000
M  V30 BEGIN CTAB
M  V30 COUNTS 28 28 0 0 0
M  V30 BEGIN ATOM
M  V30 1 C -1.78501 2.33387 -1.17377 0
M  V30 2 C -1.15769 2.11105 0.183007 0
M  V30 3 C -0.185793 0.990484 0.177391 0
M  V30 4 C 1.18212 1.26702 0.0626251 0
M  V30 5 C 2.1205 0.262319 0.0282203 0
M  V30 6 N 3.50668 0.552878 -0.089734 0
M  V30 7 C 1.74167 -1.0784 0.106633 0
M  V30 8 N 2.7434 -2.06885 0.0606828 0
M  V30 9 C 0.401343 -1.35541 0.220387 0
M  V30 10 C -0.54435 -0.331392 0.255191 0
M  V30 11 C -1.95987 -0.702191 0.403306 0
M  V30 12 C -2.10171 -2.23037 0.495461 0
M  V30 13 H -2.74745 2.87568 -1.05686 0
M  V30 14 H -1.86763 1.40678 -1.76572 0
M  V30 15 H -1.12791 3.06102 -1.72896 0
M  V30 16 H -1.92797 1.99767 0.980332 0
M  V30 17 H -0.644984 3.08187 0.455101 0
M  V30 18 H 1.47171 2.30725 0.00227331 0
M  V30 19 H 3.96379 0.253524 -1.00156 0
M  V30 20 H 4.00676 1.02109 0.670358 0
M  V30 21 H 2.81615 -2.89068 0.69448 0
M  V30 22 H 3.48106 -1.98754 -0.664682 0
M  V30 23 H 0.137654 -2.40427 0.283428 0
M  V30 24 H -2.59112 -0.342412 -0.424839 0
M  V30 25 H -2.40527 -0.279891 1.3369 0
M  V30 26 H -1.62179 -2.63115 1.40115 0
M  V30 27 H -1.71794 -2.70805 -0.44975 0
M  V30 28 H -3.18635 -2.5119 0.538946 0
M  V30 END ATOM
M  V30 BEGIN BOND
M  V30 1 1 1 2
M  V30 2 1 2 3
M  V30 3 2 3 4
M  V30 4 1 4 5
M  V30 5 1 5 6
M  V30 6 2 5 7
M  V30 7 1 7 8
M  V30 8 1 7 9
M  V30 9 2 9 10
M  V30 10 1 10 11
M  V30 11 1 11 12
M  V30 12 1 10 3
M  V30 13 1 1 13
M  V30 14 1 1 14
M  V30 15 1 1 15
M  V30 16 1 2 16
M  V30 17 1 2 17
M  V30 18 1 4 18
M  V30 19 1 6 19
M  V30 20 1 6 20
M  V30 21 1 8 21
M  V30 22 1 8 22
M  V30 23 1 9 23
M  V30 24 1 11 24
M  V30 25 1 11 25
M  V30 26 1 12 26
M  V30 27 1 12 27
M  V30 28 1 12 28
M  V30 END BOND
M  V30 END CTAB
M  END
