
     RDKit          3D

  0  0  0  0  0  0  0  0  0  0999 V3000
M  V30 BEGIN CTAB
M  V30 COUNTS 101 100 0 0 0
M  V30 BEGIN ATOM
M  V30 1 C 4.9673 -2.41593 -2.82846 0
M  V30 2 C 4.40703 -1.21368 -2.09038 0
M  V30 3 C 3.71118 -0.367249 -3.10852 0
M  V30 4 C 3.5109 -1.68571 -0.970078 0
M  V30 5 C 2.92719 -0.546346 -0.191902 0 CFG=2
M  V30 6 N 3.97534 0.24024 0.386636 0
M  V30 7 C 4.11097 1.64338 0.273975 0
M  V30 8 O 3.21672 2.24658 -0.385132 0
M  V30 9 C 5.18893 2.45228 0.848907 0 CFG=1
M  V30 10 N 6.32962 1.74904 1.33956 0
M  V30 11 C 5.61473 3.61811 0.000348214 0
M  V30 12 C 6.09241 3.30968 -1.36566 0
M  V30 13 C 7.28272 2.40801 -1.47991 0
M  V30 14 N 7.63607 2.23649 -2.9062 0
M  V30 15 C 8.15774 3.30503 -3.66356 0
M  V30 16 N 7.533 3.77723 -4.85603 0
M  V30 17 N 9.25015 3.85318 -3.22958 0
M  V30 18 C 2.01646 -1.07539 0.921805 0
M  V30 19 O 2.36973 -0.652132 2.05038 0
M  V30 20 N 0.96435 -1.91162 0.599232 0
M  V30 21 C -0.00119829 -2.54628 1.419 0 CFG=1
M  V30 22 C 0.217753 -2.35951 2.8705 0
M  V30 23 C -0.857224 -2.99619 3.75167 0
M  V30 24 C 1.47607 -3.19383 3.28618 0
M  V30 25 C -1.31783 -2.56804 0.832272 0
M  V30 26 O -1.28087 -2.87554 -0.458949 0
M  V30 27 N -2.61749 -2.34272 1.27182 0
M  V30 28 C -3.76592 -2.43748 0.423049 0 CFG=1
M  V30 29 C -4.96855 -3.12905 0.878123 0
M  V30 30 C -4.91491 -4.55836 1.2446 0
M  V30 31 C -4.0289 -4.96454 2.35391 0
M  V30 32 C -6.34167 -4.9556 1.6682 0
M  V30 33 C -4.04629 -1.09938 -0.240475 0
M  V30 34 O -3.06497 -0.430381 -0.649358 0
M  V30 35 N -5.32299 -0.567732 -0.424691 0
M  V30 36 C -5.64518 0.670601 -1.05981 0 CFG=1
M  V30 37 C -6.91671 0.611258 -1.8524 0
M  V30 38 C -5.80178 1.78875 -0.0550361 0
M  V30 39 O -5.54838 1.57372 1.14479 0
M  V30 40 N -6.23029 3.0768 -0.455592 0
M  V30 41 C -6.38575 4.19309 0.417564 0 CFG=1
M  V30 42 C -5.63245 5.35286 -0.15247 0
M  V30 43 O -6.08113 5.7506 -1.40662 0
M  V30 44 C -7.79362 4.52297 0.741659 0
M  V30 45 O -7.99235 5.6125 1.6031 0
M  V30 46 O -8.80732 3.94097 0.334434 0
M  V30 47 H 4.18205 -3.16653 -2.93709 0
M  V30 48 H 5.2665 -2.08545 -3.83529 0
M  V30 49 H 5.9047 -2.80105 -2.35153 0
M  V30 50 H 5.2666 -0.614927 -1.70431 0
M  V30 51 H 3.80614 -0.766746 -4.14209 0
M  V30 52 H 4.15711 0.662615 -3.17405 0
M  V30 53 H 2.65841 -0.217289 -2.81195 0
M  V30 54 H 2.70006 -2.32963 -1.42531 0
M  V30 55 H 4.08913 -2.38966 -0.349366 0
M  V30 56 H 2.29486 0.11818 -0.847271 0
M  V30 57 H 4.70884 -0.282504 0.956667 0
M  V30 58 H 4.77545 2.98058 1.8035 0
M  V30 59 H 6.64455 2.02326 2.2981 0
M  V30 60 H 6.39332 0.752718 1.12716 0
M  V30 61 H 6.4905 4.08406 0.564432 0
M  V30 62 H 4.84547 4.42297 0.0297755 0
M  V30 63 H 5.3023 2.88198 -2.03011 0
M  V30 64 H 6.36995 4.27973 -1.86937 0
M  V30 65 H 7.09001 1.38127 -1.04721 0
M  V30 66 H 8.13995 2.87098 -0.971118 0
M  V30 67 H 7.48747 1.31086 -3.33172 0
M  V30 68 H 7.91107 4.57184 -5.39236 0
M  V30 69 H 6.66499 3.31583 -5.2124 0
M  V30 70 H 9.72678 3.52948 -2.36611 0
M  V30 71 H 0.850175 -2.1273 -0.457331 0
M  V30 72 H 0.352601 -3.69597 1.30775 0
M  V30 73 H 0.379366 -1.35625 3.22429 0
M  V30 74 H -1.37349 -3.71074 3.09578 0
M  V30 75 H -1.51668 -2.20931 4.1315 0
M  V30 76 H -0.343747 -3.5438 4.57368 0
M  V30 77 H 2.00904 -2.59418 4.02586 0
M  V30 78 H 2.02266 -3.37402 2.34836 0
M  V30 79 H 1.11632 -4.16604 3.71324 0
M  V30 80 H -2.80988 -2.07322 2.25737 0
M  V30 81 H -3.38343 -3.03353 -0.486872 0
M  V30 82 H -5.45004 -2.58955 1.74468 0
M  V30 83 H -5.80657 -3.0685 0.0965015 0
M  V30 84 H -4.70215 -5.23459 0.3819 0
M  V30 85 H -3.93588 -4.2339 3.17411 0
M  V30 86 H -4.35982 -5.913 2.8553 0
M  V30 87 H -2.96224 -5.1899 2.0483 0
M  V30 88 H -6.4324 -6.04343 1.77622 0
M  V30 89 H -6.99523 -4.55969 0.850366 0
M  V30 90 H -6.62535 -4.38622 2.5794 0
M  V30 91 H -6.15349 -1.12844 -0.0549528 0
M  V30 92 H -4.7597 1.01832 -1.67851 0
M  V30 93 H -7.61152 1.4493 -1.64052 0
M  V30 94 H -6.65506 0.559491 -2.94629 0
M  V30 95 H -7.47481 -0.319475 -1.59882 0
M  V30 96 H -6.45262 3.21225 -1.47933 0
M  V30 97 H -5.91913 3.93129 1.40571 0
M  V30 98 H -5.60846 6.24679 0.495964 0
M  V30 99 H -4.55226 5.06299 -0.318845 0
M  V30 100 H -5.94603 5.10417 -2.12329 0
M  V30 101 H -7.369 6.3932 1.63922 0
M  V30 END ATOM
M  V30 BEGIN BOND
M  V30 1 1 1 2
M  V30 2 1 2 3
M  V30 3 1 2 4
M  V30 4 1 4 5
M  V30 5 1 5 6
M  V30 6 1 6 7
M  V30 7 2 7 8
M  V30 8 1 7 9
M  V30 9 1 9 10
M  V30 10 1 9 11
M  V30 11 1 11 12
M  V30 12 1 12 13
M  V30 13 1 13 14
M  V30 14 1 14 15
M  V30 15 1 15 16
M  V30 16 2 15 17 CFG=2
M  V30 17 1 5 18
M  V30 18 2 18 19
M  V30 19 1 18 20
M  V30 20 1 20 21
M  V30 21 1 21 22
M  V30 22 1 22 23
M  V30 23 1 22 24
M  V30 24 1 21 25
M  V30 25 2 25 26
M  V30 26 1 25 27
M  V30 27 1 27 28
M  V30 28 1 28 29
M  V30 29 1 29 30
M  V30 30 1 30 31
M  V30 31 1 30 32
M  V30 32 1 28 33
M  V30 33 2 33 34
M  V30 34 1 33 35
M  V30 35 1 35 36
M  V30 36 1 36 37
M  V30 37 1 36 38
M  V30 38 2 38 39
M  V30 39 1 38 40
M  V30 40 1 40 41
M  V30 41 1 41 42
M  V30 42 1 42 43
M  V30 43 1 41 44
M  V30 44 1 44 45
M  V30 45 2 44 46
M  V30 46 1 1 47
M  V30 47 1 1 48
M  V30 48 1 1 49
M  V30 49 1 2 50
M  V30 50 1 3 51
M  V30 51 1 3 52
M  V30 52 1 3 53
M  V30 53 1 4 54
M  V30 54 1 4 55
M  V30 55 1 5 56 CFG=3
M  V30 56 1 6 57
M  V30 57 1 9 58 CFG=1
M  V30 58 1 10 59
M  V30 59 1 10 60
M  V30 60 1 11 61
M  V30 61 1 11 62
M  V30 62 1 12 63
M  V30 63 1 12 64
M  V30 64 1 13 65
M  V30 65 1 13 66
M  V30 66 1 14 67
M  V30 67 1 16 68
M  V30 68 1 16 69
M  V30 69 1 17 70
M  V30 70 1 20 71
M  V30 71 1 21 72 CFG=1
M  V30 72 1 22 73
M  V30 73 1 23 74
M  V30 74 1 23 75
M  V30 75 1 23 76
M  V30 76 1 24 77
M  V30 77 1 24 78
M  V30 78 1 24 79
M  V30 79 1 27 80
M  V30 80 1 28 81 CFG=3
M  V30 81 1 29 82
M  V30 82 1 29 83
M  V30 83 1 30 84
M  V30 84 1 31 85
M  V30 85 1 31 86
M  V30 86 1 31 87
M  V30 87 1 32 88
M  V30 88 1 32 89
M  V30 89 1 32 90
M  V30 90 1 35 91
M  V30 91 1 36 92 CFG=3
M  V30 92 1 37 93
M  V30 93 1 37 94
M  V30 94 1 37 95
M  V30 95 1 40 96
M  V30 96 1 41 97 CFG=1
M  V30 97 1 42 98
M  V30 98 1 42 99
M  V30 99 1 43 100
M  V30 100 1 45 101
M  V30 END BOND
M  V30 END CTAB
M  END
