
     RDKit          3D

  0  0  0  0  0  0  0  0  0  0999 V3000
M  V30 BEGIN CTAB
M  V30 COUNTS 21 21 0 0 0
M  V30 BEGIN ATOM
M  V30 1 N -1.64071 -1.95256 0.134152 0
M  V30 2 C -1.52399 -0.557618 -0.211574 0
M  V30 3 C -0.385531 0.126158 0.523406 0
M  V30 4 N 0.885716 -0.4596 0.244838 0
M  V30 5 C 1.36431 -1.64016 0.709677 0
M  V30 6 N 2.60184 -1.85502 0.227608 0
M  V30 7 N 2.92245 -0.815243 -0.54735 0
M  V30 8 C 1.87064 0.0371026 -0.535069 0
M  V30 9 C -0.408058 1.57336 0.0776321 0
M  V30 10 N 0.626036 2.36324 0.695425 0
M  V30 11 H -1.93526 -2.49468 -0.707244 0
M  V30 12 H -2.1855 -2.13569 0.979069 0
M  V30 13 H -2.45227 -0.0470894 0.108738 0
M  V30 14 H -1.36417 -0.394424 -1.28438 0
M  V30 15 H -0.542547 0.0995443 1.6207 0
M  V30 16 H 0.882313 -2.35142 1.36917 0
M  V30 17 H 1.88155 0.968049 -1.09291 0
M  V30 18 H -1.38878 2.00791 0.415752 0
M  V30 19 H -0.419442 1.62788 -1.02058 0
M  V30 20 H 0.924029 3.07827 -0.0312923 0
M  V30 21 H 0.287368 2.82198 1.56288 0
M  V30 END ATOM
M  V30 BEGIN BOND
M  V30 1 1 1 2
M  V30 2 1 2 3
M  V30 3 1 3 4
M  V30 4 1 4 5
M  V30 5 2 5 6
M  V30 6 1 6 7
M  V30 7 2 7 8
M  V30 8 1 3 9
M  V30 9 1 9 10
M  V30 10 1 8 4
M  V30 11 1 1 11
M  V30 12 1 1 12
M  V30 13 1 2 13
M  V30 14 1 2 14
M  V30 15 1 3 15
M  V30 16 1 5 16
M  V30 17 1 8 17
M  V30 18 1 9 18
M  V30 19 1 9 19
M  V30 20 1 10 20
M  V30 21 1 10 21
M  V30 END BOND
M  V30 END CTAB
M  END
