
     RDKit          3D

  0  0  0  0  0  0  0  0  0  0999 V3000
M  V30 BEGIN CTAB
M  V30 COUNTS 59 62 0 0 0
M  V30 BEGIN ATOM
M  V30 1 N 8.01728 0.481031 0.322499 0
M  V30 2 C 8.01881 -0.836273 -0.202941 0 CFG=1
M  V30 3 C 6.89392 -1.59476 0.489208 0
M  V30 4 C 5.56949 -0.995434 0.25406 0
M  V30 5 C 4.74733 -1.44967 -0.748926 0
M  V30 6 C 3.51314 -0.858832 -0.971426 0
M  V30 7 C 3.08971 0.188483 -0.19749 0
M  V30 8 C 3.92359 0.643139 0.815118 0
M  V30 9 C 5.13428 0.0604083 1.03113 0
M  V30 10 C 1.7695 0.794815 -0.398425 0
M  V30 11 N 1.55054 2.00309 0.194796 0
M  V30 12 C 0.320715 2.58041 0.0681298 0
M  V30 13 N 0.0773889 3.82903 0.652419 0
M  V30 14 N -0.649524 1.9747 -0.619505 0
M  V30 15 C -0.500529 0.799038 -1.21863 0
M  V30 16 O -1.46327 0.188572 -1.89928 0
M  V30 17 C -2.76814 0.502217 -2.23667 0
M  V30 18 C -3.7537 0.210863 -1.17884 0
M  V30 19 C -4.1341 1.22738 -0.339683 0
M  V30 20 C -5.06431 1.02069 0.683756 0
M  V30 21 C -5.63659 -0.244376 0.877884 0
M  V30 22 C -5.2512 -1.23975 0.0406877 0
M  V30 23 C -4.31955 -1.02986 -0.98293 0
M  V30 24 C -6.601 -0.478716 1.95128 0
M  V30 25 C -7.60609 -1.40543 1.78622 0
M  V30 26 C -8.49806 -1.6138 2.85186 0
M  V30 27 N -8.3958 -0.935244 4.01873 0
M  V30 28 C -7.43014 -0.0492854 4.16703 0
M  V30 29 C -6.53008 0.191424 3.15332 0
M  V30 30 C -3.03578 -0.0924029 -3.5754 0
M  V30 31 F -2.85197 -1.47287 -3.6133 0
M  V30 32 F -4.29631 0.227416 -4.09456 0
M  V30 33 F -2.13446 0.442588 -4.46918 0
M  V30 34 C 0.746794 0.203586 -1.09905 0
M  V30 35 C 7.88776 -0.799665 -1.66527 0
M  V30 36 O 7.8821 -1.89377 -2.50892 0
M  V30 37 O 7.76832 0.335789 -2.22958 0
M  V30 38 H 8.11832 0.543224 1.2888 0
M  V30 39 H 8.22529 1.17171 -0.34521 0
M  V30 40 H 8.96482 -1.33393 0.0649333 0
M  V30 41 H 7.14682 -1.55697 1.58837 0
M  V30 42 H 6.91295 -2.68498 0.220391 0
M  V30 43 H 5.01343 -2.27773 -1.41246 0
M  V30 44 H 2.88442 -1.2377 -1.77784 0
M  V30 45 H 3.54297 1.48539 1.41905 0
M  V30 46 H 5.77173 0.4245 1.83293 0
M  V30 47 H 0.475657 4.04063 1.59005 0
M  V30 48 H -0.504806 4.55739 0.15021 0
M  V30 49 H -2.79748 1.63252 -2.34739 0
M  V30 50 H -3.72922 2.24367 -0.430545 0
M  V30 51 H -5.37359 1.79791 1.34839 0
M  V30 52 H -5.68742 -2.23208 0.175817 0
M  V30 53 H -4.09001 -1.88001 -1.57111 0
M  V30 54 H -7.76263 -1.97665 0.904053 0
M  V30 55 H -9.2942 -2.33469 2.74639 0
M  V30 56 H -7.4027 0.468219 5.14112 0
M  V30 57 H -5.76345 0.911122 3.3099 0
M  V30 58 H 0.948803 -0.759047 -1.56614 0
M  V30 59 H 8.41025 -1.91704 -3.39353 0
M  V30 END ATOM
M  V30 BEGIN BOND
M  V30 1 1 1 2
M  V30 2 1 2 3
M  V30 3 1 3 4
M  V30 4 2 4 5
M  V30 5 1 5 6
M  V30 6 2 6 7
M  V30 7 1 7 8
M  V30 8 2 8 9
M  V30 9 1 7 10
M  V30 10 2 10 11
M  V30 11 1 11 12
M  V30 12 1 12 13
M  V30 13 2 12 14
M  V30 14 1 14 15
M  V30 15 1 15 16
M  V30 16 1 16 17
M  V30 17 1 17 18
M  V30 18 2 18 19
M  V30 19 1 19 20
M  V30 20 2 20 21
M  V30 21 1 21 22
M  V30 22 2 22 23
M  V30 23 1 21 24
M  V30 24 2 24 25
M  V30 25 1 25 26
M  V30 26 2 26 27
M  V30 27 1 27 28
M  V30 28 2 28 29
M  V30 29 1 17 30
M  V30 30 1 30 31
M  V30 31 1 30 32
M  V30 32 1 30 33
M  V30 33 2 15 34
M  V30 34 1 2 35
M  V30 35 1 35 36
M  V30 36 2 35 37
M  V30 37 1 9 4
M  V30 38 1 34 10
M  V30 39 1 23 18
M  V30 40 1 29 24
M  V30 41 1 1 38
M  V30 42 1 1 39
M  V30 43 1 2 40 CFG=3
M  V30 44 1 3 41
M  V30 45 1 3 42
M  V30 46 1 5 43
M  V30 47 1 6 44
M  V30 48 1 8 45
M  V30 49 1 9 46
M  V30 50 1 13 47
M  V30 51 1 13 48
M  V30 52 1 17 49
M  V30 53 1 19 50
M  V30 54 1 20 51
M  V30 55 1 22 52
M  V30 56 1 23 53
M  V30 57 1 25 54
M  V30 58 1 26 55
M  V30 59 1 28 56
M  V30 60 1 29 57
M  V30 61 1 34 58
M  V30 62 1 36 59
M  V30 END BOND
M  V30 END CTAB
M  END
