
     RDKit          3D

  0  0  0  0  0  0  0  0  0  0999 V3000
M  V30 BEGIN CTAB
M  V30 COUNTS 35 36 0 0 0
M  V30 BEGIN ATOM
M  V30 1 N 3.08396 1.07409 0.986081 0
M  V30 2 C 3.15994 -0.0115664 0.0715627 0
M  V30 3 C 4.22585 -0.344883 -0.709618 0
M  V30 4 N 5.46036 0.386763 -0.713101 0
M  V30 5 N 3.89782 -1.4353 -1.43184 0
M  V30 6 N 2.67043 -1.7934 -1.13098 0
M  V30 7 C 2.18859 -0.946151 -0.21535 0
M  V30 8 C 0.838462 -0.930788 0.441897 0
M  V30 9 C 0.0379694 0.17371 -0.2153 0
M  V30 10 C -1.34786 0.275837 0.38438 0
M  V30 11 C -2.06078 1.38375 -0.322039 0
M  V30 12 C -3.53674 1.4302 -0.0481903 0
M  V30 13 C -4.12856 0.104522 -0.364393 0
M  V30 14 C -3.50397 -1.04732 0.329912 0
M  V30 15 C -2.01457 -1.03432 0.405108 0
M  V30 16 H 2.98271 2.06771 0.72532 0
M  V30 17 H 3.13371 0.862727 2.02058 0
M  V30 18 H 5.43504 1.36283 -1.11334 0
M  V30 19 H 6.29834 -0.0737584 -0.329662 0
M  V30 20 H 4.54277 -1.88132 -2.10067 0
M  V30 21 H 0.916002 -0.743106 1.53724 0
M  V30 22 H 0.395538 -1.92178 0.272119 0
M  V30 23 H 0.57992 1.13632 -0.187287 0
M  V30 24 H -0.0992727 -0.13026 -1.27781 0
M  V30 25 H -1.17989 0.632131 1.44309 0
M  V30 26 H -1.9213 1.29991 -1.41987 0
M  V30 27 H -1.65008 2.37367 -0.0327189 0
M  V30 28 H -3.97373 2.17007 -0.780034 0
M  V30 29 H -3.81979 1.80084 0.938341 0
M  V30 30 H -5.21298 0.155883 -0.0439686 0
M  V30 31 H -4.20679 -0.0633318 -1.47972 0
M  V30 32 H -3.9536 -1.08907 1.36879 0
M  V30 33 H -3.88289 -1.97786 -0.157855 0
M  V30 34 H -1.73585 -1.56703 1.3621 0
M  V30 35 H -1.61877 -1.69971 -0.39209 0
M  V30 END ATOM
M  V30 BEGIN BOND
M  V30 1 1 1 2
M  V30 2 2 2 3
M  V30 3 1 3 4
M  V30 4 1 3 5
M  V30 5 1 5 6
M  V30 6 2 6 7
M  V30 7 1 7 8
M  V30 8 1 8 9
M  V30 9 1 9 10
M  V30 10 1 10 11
M  V30 11 1 11 12
M  V30 12 1 12 13
M  V30 13 1 13 14
M  V30 14 1 14 15
M  V30 15 1 7 2
M  V30 16 1 15 10
M  V30 17 1 1 16
M  V30 18 1 1 17
M  V30 19 1 4 18
M  V30 20 1 4 19
M  V30 21 1 5 20
M  V30 22 1 8 21
M  V30 23 1 8 22
M  V30 24 1 9 23
M  V30 25 1 9 24
M  V30 26 1 10 25
M  V30 27 1 11 26
M  V30 28 1 11 27
M  V30 29 1 12 28
M  V30 30 1 12 29
M  V30 31 1 13 30
M  V30 32 1 13 31
M  V30 33 1 14 32
M  V30 34 1 14 33
M  V30 35 1 15 34
M  V30 36 1 15 35
M  V30 END BOND
M  V30 END CTAB
M  END
