
     RDKit          3D

  0  0  0  0  0  0  0  0  0  0999 V3000
M  V30 BEGIN CTAB
M  V30 COUNTS 28 29 0 0 0
M  V30 BEGIN ATOM
M  V30 1 F 5.44095 1.69691 -0.729995 0
M  V30 2 C 4.54691 0.765118 -0.338294 0
M  V30 3 C 4.81297 -0.590522 -0.366615 0
M  V30 4 C 3.86556 -1.51076 0.0448447 0
M  V30 5 C 2.6262 -1.09265 0.495441 0
M  V30 6 C 2.37711 0.257234 0.517596 0
M  V30 7 C 3.30144 1.18732 0.114416 0
M  V30 8 C 1.05728 0.722595 0.99637 0
M  V30 9 O 0.208821 0.779525 -0.157039 0
M  V30 10 N -1.0806 1.19632 0.082482 0
M  V30 11 C -2.06705 0.396376 -0.0254161 0
M  V30 12 C -3.43641 0.854362 0.232948 0
M  V30 13 N -3.79099 2.09708 0.592376 0
M  V30 14 O -5.07723 2.10512 0.725206 0
M  V30 15 N -5.59714 0.948774 0.477138 0
M  V30 16 C -4.58832 0.118339 0.158496 0
M  V30 17 N -4.62323 -1.2454 -0.192847 0
M  V30 18 N -1.81731 -0.941746 -0.399008 0
M  V30 19 H 5.78573 -0.948684 -0.718665 0
M  V30 20 H 4.06151 -2.5893 0.0283176 0
M  V30 21 H 1.88356 -1.83872 0.819306 0
M  V30 22 H 3.09708 2.26883 0.133992 0
M  V30 23 H 1.11775 1.72947 1.45326 0
M  V30 24 H 0.625495 -0.0274721 1.71822 0
M  V30 25 H -4.54733 -1.96188 0.538954 0
M  V30 26 H -4.72438 -1.51549 -1.1788 0
M  V30 27 H -1.49939 -1.66702 0.304178 0
M  V30 28 H -1.95899 -1.19375 -1.40562 0
M  V30 END ATOM
M  V30 BEGIN BOND
M  V30 1 1 1 2
M  V30 2 2 2 3
M  V30 3 1 3 4
M  V30 4 2 4 5
M  V30 5 1 5 6
M  V30 6 2 6 7
M  V30 7 1 6 8
M  V30 8 1 8 9
M  V30 9 1 9 10
M  V30 10 2 10 11
M  V30 11 1 11 12
M  V30 12 2 12 13
M  V30 13 1 13 14
M  V30 14 1 14 15
M  V30 15 2 15 16
M  V30 16 1 16 17
M  V30 17 1 11 18
M  V30 18 1 7 2
M  V30 19 1 16 12
M  V30 20 1 3 19
M  V30 21 1 4 20
M  V30 22 1 5 21
M  V30 23 1 7 22
M  V30 24 1 8 23
M  V30 25 1 8 24
M  V30 26 1 17 25
M  V30 27 1 17 26
M  V30 28 1 18 27
M  V30 29 1 18 28
M  V30 END BOND
M  V30 END CTAB
M  END
