
     RDKit          3D

  0  0  0  0  0  0  0  0  0  0999 V3000
M  V30 BEGIN CTAB
M  V30 COUNTS 38 39 0 0 0
M  V30 BEGIN ATOM
M  V30 1 C 5.02803 -1.20604 -0.688387 0
M  V30 2 C 4.18533 -0.151766 -1.34454 0
M  V30 3 C 3.0174 0.217961 -0.49459 0
M  V30 4 C 3.25619 1.01508 0.603814 0
M  V30 5 N 4.58221 1.44764 0.889121 0
M  V30 6 C 2.21883 1.38806 1.41804 0
M  V30 7 C 0.921667 0.97456 1.15478 0
M  V30 8 C 0.695336 0.173483 0.0469583 0
M  V30 9 C 1.73156 -0.209349 -0.781334 0
M  V30 10 C -0.682419 -0.238867 -0.198573 0
M  V30 11 C -1.73767 0.606794 0.162332 0
M  V30 12 C -3.05105 0.248517 -0.0608024 0
M  V30 13 C -4.18004 1.10237 0.301988 0
M  V30 14 C -4.93283 0.704944 1.52628 0
M  V30 15 C -3.27323 -0.973267 -0.651797 0
M  V30 16 N -4.61154 -1.36815 -0.896664 0
M  V30 17 C -2.24891 -1.82811 -1.01779 0
M  V30 18 C -0.93049 -1.45707 -0.788615 0
M  V30 19 H 4.6787 -1.45391 0.345905 0
M  V30 20 H 6.07974 -0.823116 -0.674832 0
M  V30 21 H 5.02567 -2.17206 -1.25694 0
M  V30 22 H 3.74974 -0.628319 -2.27305 0
M  V30 23 H 4.74573 0.760512 -1.60505 0
M  V30 24 H 5.38491 1.29004 0.265101 0
M  V30 25 H 4.77427 1.96149 1.78762 0
M  V30 26 H 2.37369 2.01892 2.29597 0
M  V30 27 H 0.10061 1.28252 1.81893 0
M  V30 28 H 1.53634 -0.835291 -1.64136 0
M  V30 29 H -1.52778 1.5523 0.620198 0
M  V30 30 H -4.89263 1.27588 -0.53078 0
M  V30 31 H -3.75157 2.12712 0.516494 0
M  V30 32 H -5.77375 -0.00725492 1.34162 0
M  V30 33 H -5.46043 1.63557 1.89791 0
M  V30 34 H -4.28758 0.398865 2.35883 0
M  V30 35 H -5.13845 -1.80246 -0.111317 0
M  V30 36 H -5.08019 -1.25043 -1.79769 0
M  V30 37 H -2.44452 -2.78464 -1.48038 0
M  V30 38 H -0.0808775 -2.08874 -1.05741 0
M  V30 END ATOM
M  V30 BEGIN BOND
M  V30 1 1 1 2
M  V30 2 1 2 3
M  V30 3 2 3 4
M  V30 4 1 4 5
M  V30 5 1 4 6
M  V30 6 2 6 7
M  V30 7 1 7 8
M  V30 8 2 8 9
M  V30 9 1 8 10
M  V30 10 2 10 11
M  V30 11 1 11 12
M  V30 12 1 12 13
M  V30 13 1 13 14
M  V30 14 2 12 15
M  V30 15 1 15 16
M  V30 16 1 15 17
M  V30 17 2 17 18
M  V30 18 1 9 3
M  V30 19 1 18 10
M  V30 20 1 1 19
M  V30 21 1 1 20
M  V30 22 1 1 21
M  V30 23 1 2 22
M  V30 24 1 2 23
M  V30 25 1 5 24
M  V30 26 1 5 25
M  V30 27 1 6 26
M  V30 28 1 7 27
M  V30 29 1 9 28
M  V30 30 1 11 29
M  V30 31 1 13 30
M  V30 32 1 13 31
M  V30 33 1 14 32
M  V30 34 1 14 33
M  V30 35 1 14 34
M  V30 36 1 16 35
M  V30 37 1 16 36
M  V30 38 1 17 37
M  V30 39 1 18 38
M  V30 END BOND
M  V30 END CTAB
M  END
