
     RDKit          3D

  0  0  0  0  0  0  0  0  0  0999 V3000
M  V30 BEGIN CTAB
M  V30 COUNTS 24 25 0 0 0
M  V30 BEGIN ATOM
M  V30 1 N -3.43851 1.65599 0.459907 0
M  V30 2 C -2.64242 0.495028 0.326768 0
M  V30 3 C -3.22342 -0.753951 0.352439 0
M  V30 4 C -2.49752 -1.91818 0.227456 0
M  V30 5 C -1.10405 -1.80403 0.0676333 0
M  V30 6 C -0.499679 -0.583663 0.038242 0
M  V30 7 C -1.25629 0.553425 0.165908 0
M  V30 8 C 0.931175 -0.471384 -0.12603 0
M  V30 9 C 1.78802 -1.54445 -0.263278 0
M  V30 10 N 3.13772 -1.40013 -0.416921 0
M  V30 11 C 3.6714 -0.169762 -0.437675 0
M  V30 12 C 2.84374 0.949173 -0.302292 0
M  V30 13 N 1.54236 0.751843 -0.156129 0
M  V30 14 N 3.46291 2.22104 -0.331657 0
M  V30 15 H -4.38632 1.57378 0.862279 0
M  V30 16 H -3.1114 2.6063 0.167521 0
M  V30 17 H -4.31129 -0.845989 0.477109 0
M  V30 18 H -2.97459 -2.87747 0.250803 0
M  V30 19 H -0.586146 -2.74828 -0.0254079 0
M  V30 20 H -0.825312 1.55106 0.14929 0
M  V30 21 H 1.3831 -2.55197 -0.250053 0
M  V30 22 H 4.73322 -0.0201131 -0.557319 0
M  V30 23 H 4.1688 2.43901 0.381492 0
M  V30 24 H 3.19452 2.89272 -1.06009 0
M  V30 END ATOM
M  V30 BEGIN BOND
M  V30 1 1 1 2
M  V30 2 2 2 3
M  V30 3 1 3 4
M  V30 4 2 4 5
M  V30 5 1 5 6
M  V30 6 2 6 7
M  V30 7 1 6 8
M  V30 8 2 8 9
M  V30 9 1 9 10
M  V30 10 2 10 11
M  V30 11 1 11 12
M  V30 12 2 12 13
M  V30 13 1 12 14
M  V30 14 1 7 2
M  V30 15 1 13 8
M  V30 16 1 1 15
M  V30 17 1 1 16
M  V30 18 1 3 17
M  V30 19 1 4 18
M  V30 20 1 5 19
M  V30 21 1 7 20
M  V30 22 1 9 21
M  V30 23 1 11 22
M  V30 24 1 14 23
M  V30 25 1 14 24
M  V30 END BOND
M  V30 END CTAB
M  END
