
     RDKit          3D

  0  0  0  0  0  0  0  0  0  0999 V3000
M  V30 BEGIN CTAB
M  V30 COUNTS 30 30 0 0 0
M  V30 BEGIN ATOM
M  V30 1 N 3.34522 0.924108 0.696692 0
M  V30 2 C 2.91173 -0.375718 1.06536 0
M  V30 3 C 1.98274 -1.02818 0.0729974 0
M  V30 4 C 0.733512 -0.207676 -0.113187 0
M  V30 5 N -0.48261 -0.682739 0.2083 0
M  V30 6 C -1.61338 0.0508487 0.043368 0
M  V30 7 N -1.49556 1.29149 -0.459254 0
M  V30 8 C -0.298256 1.80802 -0.795036 0
M  V30 9 N 0.800808 1.03839 -0.612384 0
M  V30 10 N -0.224899 3.12742 -1.32385 0
M  V30 11 N -2.87479 -0.500116 0.399816 0
M  V30 12 C -2.96128 -1.84308 0.939317 0
M  V30 13 C -4.05397 0.321154 0.205694 0
M  V30 14 C 2.64592 -1.26892 -1.25607 0
M  V30 15 H 4.12736 0.96113 0.0228577 0
M  V30 16 H 3.45504 1.56958 1.50712 0
M  V30 17 H 3.77524 -1.06159 1.19053 0
M  V30 18 H 2.39443 -0.349835 2.04346 0
M  V30 19 H 1.70422 -2.01618 0.493681 0
M  V30 20 H -0.672573 3.94688 -0.856346 0
M  V30 21 H 0.287029 3.35054 -2.21938 0
M  V30 22 H -4.00636 -2.21368 0.906427 0
M  V30 23 H -2.59969 -1.91841 1.96783 0
M  V30 24 H -2.33645 -2.49579 0.285622 0
M  V30 25 H -4.153 0.958675 1.09243 0
M  V30 26 H -3.87293 0.957221 -0.67544 0
M  V30 27 H -4.96026 -0.300696 0.0270297 0
M  V30 28 H 2.21531 -0.582961 -2.02846 0
M  V30 29 H 2.4676 -2.29946 -1.63864 0
M  V30 30 H 3.75984 -1.16042 -1.19049 0
M  V30 END ATOM
M  V30 BEGIN BOND
M  V30 1 1 1 2
M  V30 2 1 2 3
M  V30 3 1 3 4
M  V30 4 2 4 5
M  V30 5 1 5 6
M  V30 6 2 6 7
M  V30 7 1 7 8
M  V30 8 2 8 9
M  V30 9 1 8 10
M  V30 10 1 6 11
M  V30 11 1 11 12
M  V30 12 1 11 13
M  V30 13 1 3 14
M  V30 14 1 9 4
M  V30 15 1 1 15
M  V30 16 1 1 16
M  V30 17 1 2 17
M  V30 18 1 2 18
M  V30 19 1 3 19
M  V30 20 1 10 20
M  V30 21 1 10 21
M  V30 22 1 12 22
M  V30 23 1 12 23
M  V30 24 1 12 24
M  V30 25 1 13 25
M  V30 26 1 13 26
M  V30 27 1 13 27
M  V30 28 1 14 28
M  V30 29 1 14 29
M  V30 30 1 14 30
M  V30 END BOND
M  V30 END CTAB
M  END
