
     RDKit          3D

  0  0  0  0  0  0  0  0  0  0999 V3000
M  V30 BEGIN CTAB
M  V30 COUNTS 36 37 0 0 0
M  V30 BEGIN ATOM
M  V30 1 F 3.67887 1.60462 -3.46327 0
M  V30 2 C 3.53761 1.0719 -2.22569 0
M  V30 3 C 2.4436 1.36907 -1.42673 0
M  V30 4 C 2.28319 0.837213 -0.16775 0
M  V30 5 N 1.1221 1.18689 0.617275 0
M  V30 6 N -0.0304772 0.415823 0.477868 0
M  V30 7 N -1.03424 0.698439 1.19195 0
M  V30 8 C -2.21766 -0.104209 1.03869 0
M  V30 9 C -2.28308 -1.38374 1.54723 0
M  V30 10 C -3.41541 -2.15728 1.40333 0
M  V30 11 F -3.40199 -3.39932 1.92909 0
M  V30 12 C -4.5334 -1.68844 0.745194 0
M  V30 13 C -4.45643 -0.400611 0.237976 0
M  V30 14 C -3.32839 0.377243 0.378282 0
M  V30 15 C -3.29222 1.74485 -0.178927 0
M  V30 16 N -5.61273 0.0991974 -0.448952 0
M  V30 17 C 3.25184 -0.0182977 0.300626 0
M  V30 18 C 4.34381 -0.318882 -0.488844 0
M  V30 19 C 4.50235 0.213644 -1.74689 0
M  V30 20 N 5.33158 -1.19849 0.00316378 0
M  V30 21 C 3.07056 -0.586625 1.66122 0
M  V30 22 H 1.69929 2.04819 -1.831 0
M  V30 23 H 1.15206 1.99831 1.27208 0
M  V30 24 H -1.40071 -1.74991 2.06515 0
M  V30 25 H -5.39217 -2.31257 0.651617 0
M  V30 26 H -3.76546 1.8128 -1.17962 0
M  V30 27 H -3.69385 2.49632 0.536249 0
M  V30 28 H -2.22494 2.05976 -0.346406 0
M  V30 29 H -6.42986 -0.494391 -0.665849 0
M  V30 30 H -5.64633 1.09732 -0.747856 0
M  V30 31 H 5.38914 -0.0644098 -2.32084 0
M  V30 32 H 6.27174 -0.88247 0.31873 0
M  V30 33 H 5.11629 -2.21394 0.0557237 0
M  V30 34 H 2.62023 0.22049 2.28751 0
M  V30 35 H 2.33 -1.40676 1.59744 0
M  V30 36 H 4.0151 -0.971741 2.08645 0
M  V30 END ATOM
M  V30 BEGIN BOND
M  V30 1 1 1 2
M  V30 2 2 2 3
M  V30 3 1 3 4
M  V30 4 1 4 5
M  V30 5 1 5 6
M  V30 6 2 6 7 CFG=2
M  V30 7 1 7 8
M  V30 8 2 8 9
M  V30 9 1 9 10
M  V30 10 1 10 11
M  V30 11 2 10 12
M  V30 12 1 12 13
M  V30 13 2 13 14
M  V30 14 1 14 15
M  V30 15 1 13 16
M  V30 16 2 4 17
M  V30 17 1 17 18
M  V30 18 2 18 19
M  V30 19 1 18 20
M  V30 20 1 17 21
M  V30 21 1 19 2
M  V30 22 1 14 8
M  V30 23 1 3 22
M  V30 24 1 5 23
M  V30 25 1 9 24
M  V30 26 1 12 25
M  V30 27 1 15 26
M  V30 28 1 15 27
M  V30 29 1 15 28
M  V30 30 1 16 29
M  V30 31 1 16 30
M  V30 32 1 19 31
M  V30 33 1 20 32
M  V30 34 1 20 33
M  V30 35 1 21 34
M  V30 36 1 21 35
M  V30 37 1 21 36
M  V30 END BOND
M  V30 END CTAB
M  END
