
     RDKit          3D

  0  0  0  0  0  0  0  0  0  0999 V3000
M  V30 BEGIN CTAB
M  V30 COUNTS 21 21 0 0 0
M  V30 BEGIN ATOM
M  V30 1 N -1.95493 1.57211 -0.997798 0
M  V30 2 C -2.11526 0.549188 0.01517 0
M  V30 3 C -1.18876 -0.616439 -0.226801 0
M  V30 4 C 0.236044 -0.192022 -0.208989 0
M  V30 5 C 1.20085 -1.15709 -0.125994 0
M  V30 6 C 2.54192 -0.837727 -0.104695 0
M  V30 7 C 2.91842 0.495048 -0.169116 0
M  V30 8 C 1.89899 1.43401 -0.252235 0
M  V30 9 N 0.605093 1.09019 -0.270769 0
M  V30 10 Br 4.7495 1.01065 -0.144534 0
M  V30 11 N -1.48312 -1.62207 0.764004 0
M  V30 12 H -2.66868 2.31791 -0.776171 0
M  V30 13 H -2.21954 1.20718 -1.94032 0
M  V30 14 H -3.15556 0.139302 -0.0194402 0
M  V30 15 H -1.96537 1.00564 1.0119 0
M  V30 16 H -1.47292 -1.05423 -1.21717 0
M  V30 17 H 0.955986 -2.22313 -0.0728183 0
M  V30 18 H 3.30738 -1.62656 -0.0375419 0
M  V30 19 H 2.20808 2.46888 -0.30177 0
M  V30 20 H -1.23641 -2.58623 0.4638 0
M  V30 21 H -1.1617 -1.37462 1.71901 0
M  V30 END ATOM
M  V30 BEGIN BOND
M  V30 1 1 1 2
M  V30 2 1 2 3
M  V30 3 1 3 4
M  V30 4 2 4 5
M  V30 5 1 5 6
M  V30 6 2 6 7
M  V30 7 1 7 8
M  V30 8 2 8 9
M  V30 9 1 7 10
M  V30 10 1 3 11
M  V30 11 1 9 4
M  V30 12 1 1 12
M  V30 13 1 1 13
M  V30 14 1 2 14
M  V30 15 1 2 15
M  V30 16 1 3 16
M  V30 17 1 5 17
M  V30 18 1 6 18
M  V30 19 1 8 19
M  V30 20 1 11 20
M  V30 21 1 11 21
M  V30 END BOND
M  V30 END CTAB
M  END
