
     RDKit          3D

  0  0  0  0  0  0  0  0  0  0999 V3000
M  V30 BEGIN CTAB
M  V30 COUNTS 28 28 0 0 0
M  V30 BEGIN ATOM
M  V30 1 N -3.76826 -0.111881 0.348825 0
M  V30 2 C -2.71287 -0.983869 -0.0588817 0
M  V30 3 C -1.43063 -0.265299 -0.351075 0 CFG=1
M  V30 4 C -0.9883 0.449421 0.893055 0
M  V30 5 C 0.246891 1.25729 0.475435 0
M  V30 6 C 1.3477 0.198522 0.33543 0 CFG=2
M  V30 7 C 2.62258 0.936545 0.115075 0
M  V30 8 N 3.76827 0.0672774 -0.0375113 0
M  V30 9 C 1.00044 -0.707662 -0.813749 0
M  V30 10 C -0.380467 -1.22028 -0.808657 0
M  V30 11 H -3.62739 0.413041 1.19964 0
M  V30 12 H -4.11204 0.458572 -0.413539 0
M  V30 13 H -3.05889 -1.50157 -0.996836 0
M  V30 14 H -2.49507 -1.76593 0.712828 0
M  V30 15 H -1.65489 0.491641 -1.15527 0
M  V30 16 H -0.652016 -0.335126 1.61865 0
M  V30 17 H -1.72188 1.13301 1.31004 0
M  V30 18 H 0.507508 2.0159 1.20756 0
M  V30 19 H 0.0707963 1.66997 -0.543118 0
M  V30 20 H 1.31216 -0.385732 1.27544 0
M  V30 21 H 2.49354 1.63334 -0.719741 0
M  V30 22 H 2.80141 1.56794 1.03173 0
M  V30 23 H 4.5952 0.504378 0.428311 0
M  V30 24 H 4.00882 -0.0137181 -1.0548 0
M  V30 25 H 1.6996 -1.59117 -0.737585 0
M  V30 26 H 1.2722 -0.23219 -1.79174 0
M  V30 27 H -0.498304 -2.16511 -0.22151 0
M  V30 28 H -0.646114 -1.51731 -1.86578 0
M  V30 END ATOM
M  V30 BEGIN BOND
M  V30 1 1 1 2
M  V30 2 1 2 3
M  V30 3 1 3 4
M  V30 4 1 4 5
M  V30 5 1 5 6
M  V30 6 1 6 7
M  V30 7 1 7 8
M  V30 8 1 6 9
M  V30 9 1 9 10
M  V30 10 1 10 3
M  V30 11 1 1 11
M  V30 12 1 1 12
M  V30 13 1 2 13
M  V30 14 1 2 14
M  V30 15 1 3 15 CFG=3
M  V30 16 1 4 16
M  V30 17 1 4 17
M  V30 18 1 5 18
M  V30 19 1 5 19
M  V30 20 1 6 20 CFG=1
M  V30 21 1 7 21
M  V30 22 1 7 22
M  V30 23 1 8 23
M  V30 24 1 8 24
M  V30 25 1 9 25
M  V30 26 1 9 26
M  V30 27 1 10 27
M  V30 28 1 10 28
M  V30 END BOND
M  V30 END CTAB
M  END
