
     RDKit          3D

  0  0  0  0  0  0  0  0  0  0999 V3000
M  V30 BEGIN CTAB
M  V30 COUNTS 39 40 0 0 0
M  V30 BEGIN ATOM
M  V30 1 N -2.17503 -2.43971 -0.175062 0
M  V30 2 C -1.4055 -1.27769 0.209251 0
M  V30 3 C 0.0209828 -1.52473 -0.18024 0
M  V30 4 O 0.370405 -2.58312 -0.733975 0
M  V30 5 N 0.986963 -0.527424 0.0909212 0
M  V30 6 C 2.36951 -0.730543 -0.269877 0
M  V30 7 C 3.16488 0.467813 0.126675 0
M  V30 8 C 4.62254 0.360308 -0.205209 0
M  V30 9 C 5.42868 1.58972 0.203521 0
M  V30 10 C 5.6558 0.258473 0.84363 0
M  V30 11 N 2.65017 1.69057 -0.45871 0
M  V30 12 C -1.86786 -0.0762907 -0.588933 0
M  V30 13 C -3.3064 0.188653 -0.331838 0
M  V30 14 C -4.28227 -0.403334 -1.11946 0
M  V30 15 C -5.61742 -0.160603 -0.884722 0
M  V30 16 C -5.9798 0.687654 0.154352 0
M  V30 17 C -5.00554 1.27537 0.936559 0
M  V30 18 C -3.65375 1.02821 0.697159 0
M  V30 19 H -1.93145 -2.67347 -1.16448 0
M  V30 20 H -1.94785 -3.20064 0.493265 0
M  V30 21 H -1.41106 -1.07116 1.28341 0
M  V30 22 H 0.719167 0.364804 0.55256 0
M  V30 23 H 2.45999 -0.985284 -1.34595 0
M  V30 24 H 2.69884 -1.64122 0.29163 0
M  V30 25 H 3.02936 0.589136 1.23853 0
M  V30 26 H 4.82271 -0.053653 -1.22857 0
M  V30 27 H 6.13462 1.97788 -0.555854 0
M  V30 28 H 4.96763 2.35004 0.842121 0
M  V30 29 H 6.57962 -0.315194 0.567245 0
M  V30 30 H 5.35967 0.100334 1.89049 0
M  V30 31 H 3.30667 2.06534 -1.20472 0
M  V30 32 H 1.74135 1.52364 -0.978978 0
M  V30 33 H -1.72447 -0.251086 -1.67104 0
M  V30 34 H -1.22311 0.770073 -0.293851 0
M  V30 35 H -3.96799 -1.06911 -1.93349 0
M  V30 36 H -6.38398 -0.614524 -1.48959 0
M  V30 37 H -7.03392 0.869661 0.327666 0
M  V30 38 H -5.26602 1.94235 1.75482 0
M  V30 39 H -2.90615 1.49876 1.32176 0
M  V30 END ATOM
M  V30 BEGIN BOND
M  V30 1 1 1 2
M  V30 2 1 2 3
M  V30 3 2 3 4
M  V30 4 1 3 5
M  V30 5 1 5 6
M  V30 6 1 6 7
M  V30 7 1 7 8
M  V30 8 1 8 9
M  V30 9 1 9 10
M  V30 10 1 7 11
M  V30 11 1 2 12
M  V30 12 1 12 13
M  V30 13 2 13 14
M  V30 14 1 14 15
M  V30 15 2 15 16
M  V30 16 1 16 17
M  V30 17 2 17 18
M  V30 18 1 10 8
M  V30 19 1 18 13
M  V30 20 1 1 19
M  V30 21 1 1 20
M  V30 22 1 2 21
M  V30 23 1 5 22
M  V30 24 1 6 23
M  V30 25 1 6 24
M  V30 26 1 7 25
M  V30 27 1 8 26
M  V30 28 1 9 27
M  V30 29 1 9 28
M  V30 30 1 10 29
M  V30 31 1 10 30
M  V30 32 1 11 31
M  V30 33 1 11 32
M  V30 34 1 12 33
M  V30 35 1 12 34
M  V30 36 1 14 35
M  V30 37 1 15 36
M  V30 38 1 16 37
M  V30 39 1 17 38
M  V30 40 1 18 39
M  V30 END BOND
M  V30 END CTAB
M  END
