
     RDKit          3D

  0  0  0  0  0  0  0  0  0  0999 V3000
M  V30 BEGIN CTAB
M  V30 COUNTS 28 27 0 0 0
M  V30 BEGIN ATOM
M  V30 1 N 3.68275 -0.653476 -0.143896 0
M  V30 2 N 2.44834 -0.378445 0.40963 0
M  V30 3 C 1.25975 -0.60916 -0.320951 0
M  V30 4 O 1.34155 -1.06694 -1.47802 0
M  V30 5 C -0.0840556 -0.316379 0.264137 0
M  V30 6 C -1.15197 -0.661579 -0.718331 0
M  V30 7 N -2.46188 -0.381379 -0.159201 0
M  V30 8 C -1.08806 -2.16407 -0.950261 0
M  V30 9 C -0.0805474 1.11402 0.710676 0
M  V30 10 C 0.178892 2.08382 -0.418182 0
M  V30 11 C -1.31851 1.54505 1.4182 0
M  V30 12 H 4.11586 -1.52166 0.258959 0
M  V30 13 H 4.37466 0.120393 0.0433609 0
M  V30 14 H 2.39564 0.00200343 1.37417 0
M  V30 15 H -0.227734 -0.944967 1.16649 0
M  V30 16 H -1.02378 -0.173731 -1.70354 0
M  V30 17 H -2.56241 -1.03425 0.675747 0
M  V30 18 H -3.16609 -0.726173 -0.867871 0
M  V30 19 H -2.10608 -2.63201 -0.88122 0
M  V30 20 H -0.484233 -2.6637 -0.166202 0
M  V30 21 H -0.728299 -2.40352 -1.97118 0
M  V30 22 H 0.770006 1.22825 1.41982 0
M  V30 23 H 1.26327 2.32123 -0.51352 0
M  V30 24 H -0.159104 1.72579 -1.39538 0
M  V30 25 H -0.32391 3.0535 -0.213229 0
M  V30 26 H -1.03039 2.36748 2.12814 0
M  V30 27 H -1.76728 0.755553 2.06464 0
M  V30 28 H -2.0664 2.01435 0.740757 0
M  V30 END ATOM
M  V30 BEGIN BOND
M  V30 1 1 1 2
M  V30 2 1 2 3
M  V30 3 2 3 4
M  V30 4 1 3 5
M  V30 5 1 5 6
M  V30 6 1 6 7
M  V30 7 1 6 8
M  V30 8 1 5 9
M  V30 9 1 9 10
M  V30 10 1 9 11
M  V30 11 1 1 12
M  V30 12 1 1 13
M  V30 13 1 2 14
M  V30 14 1 5 15
M  V30 15 1 6 16
M  V30 16 1 7 17
M  V30 17 1 7 18
M  V30 18 1 8 19
M  V30 19 1 8 20
M  V30 20 1 8 21
M  V30 21 1 9 22
M  V30 22 1 10 23
M  V30 23 1 10 24
M  V30 24 1 10 25
M  V30 25 1 11 26
M  V30 26 1 11 27
M  V30 27 1 11 28
M  V30 END BOND
M  V30 END CTAB
M  END
