
     RDKit          3D

  0  0  0  0  0  0  0  0  0  0999 V3000
M  V30 BEGIN CTAB
M  V30 COUNTS 42 44 0 0 0
M  V30 BEGIN ATOM
M  V30 1 O -0.73723 -0.130579 -1.68219 0
M  V30 2 C -0.923923 -0.498032 -0.504737 0
M  V30 3 C -2.30131 -0.914425 -0.159481 0
M  V30 4 C -2.53864 -2.3585 -0.0934136 0
M  V30 5 C -1.68517 -3.23987 0.52536 0
M  V30 6 C -2.01713 -4.58498 0.533694 0
M  V30 7 C -3.17122 -5.04556 -0.0594965 0
M  V30 8 C -4.01501 -4.14574 -0.675674 0
M  V30 9 C -3.72103 -2.80559 -0.704878 0
M  V30 10 S -2.74497 -0.173997 1.4849 0
M  V30 11 C -2.82265 1.61132 1.29378 0
M  V30 12 N -3.09837 2.56491 2.17349 0
M  V30 13 N -3.09557 3.77394 1.81014 0
M  V30 14 C -2.81795 4.09303 0.552355 0
M  V30 15 S -2.54944 2.53178 -0.120322 0
M  V30 16 N -2.76034 5.39049 -0.0664693 0
M  V30 17 N 0.135219 -0.50123 0.420724 0
M  V30 18 C 1.47245 -0.130866 0.140789 0
M  V30 19 C 2.05094 -0.118937 -1.0887 0
M  V30 20 C 3.38123 0.290456 -1.29053 0
M  V30 21 C 4.14007 0.69483 -0.225396 0
M  V30 22 C 3.56662 0.686958 1.02697 0
M  V30 23 C 2.27352 0.289709 1.22512 0
M  V30 24 S 5.80709 1.21311 -0.442711 0
M  V30 25 O 6.67283 0.765997 0.689514 0
M  V30 26 O 6.31484 0.500941 -1.68762 0
M  V30 27 N 5.89258 2.89914 -0.733477 0
M  V30 28 H -3.01463 -0.457827 -0.869484 0
M  V30 29 H -0.764984 -2.8949 0.997489 0
M  V30 30 H -1.31593 -5.25081 1.03366 0
M  V30 31 H -3.41366 -6.08906 -0.0443117 0
M  V30 32 H -4.92859 -4.47765 -1.15023 0
M  V30 33 H -4.3916 -2.09842 -1.19268 0
M  V30 34 H -3.53575 6.02729 0.120887 0
M  V30 35 H -1.92241 5.57114 -0.659735 0
M  V30 36 H -0.0510802 -0.787052 1.44299 0
M  V30 37 H 1.48561 -0.45094 -1.95907 0
M  V30 38 H 3.77168 0.272337 -2.30516 0
M  V30 39 H 4.20538 1.01453 1.83778 0
M  V30 40 H 1.84727 0.296303 2.23721 0
M  V30 41 H 6.30636 3.34259 0.113528 0
M  V30 42 H 5.01488 3.32416 -1.06144 0
M  V30 END ATOM
M  V30 BEGIN BOND
M  V30 1 2 1 2
M  V30 2 1 2 3
M  V30 3 1 3 4
M  V30 4 2 4 5
M  V30 5 1 5 6
M  V30 6 2 6 7
M  V30 7 1 7 8
M  V30 8 2 8 9
M  V30 9 1 3 10
M  V30 10 1 10 11
M  V30 11 2 11 12
M  V30 12 1 12 13
M  V30 13 2 13 14
M  V30 14 1 14 15
M  V30 15 1 14 16
M  V30 16 1 2 17
M  V30 17 1 17 18
M  V30 18 2 18 19
M  V30 19 1 19 20
M  V30 20 2 20 21
M  V30 21 1 21 22
M  V30 22 2 22 23
M  V30 23 1 21 24
M  V30 24 2 24 25
M  V30 25 2 24 26
M  V30 26 1 24 27
M  V30 27 1 9 4
M  V30 28 1 15 11
M  V30 29 1 23 18
M  V30 30 1 3 28
M  V30 31 1 5 29
M  V30 32 1 6 30
M  V30 33 1 7 31
M  V30 34 1 8 32
M  V30 35 1 9 33
M  V30 36 1 16 34
M  V30 37 1 16 35
M  V30 38 1 17 36
M  V30 39 1 19 37
M  V30 40 1 20 38
M  V30 41 1 22 39
M  V30 42 1 23 40
M  V30 43 1 27 41
M  V30 44 1 27 42
M  V30 END BOND
M  V30 END CTAB
M  END
