
     RDKit          3D

  0  0  0  0  0  0  0  0  0  0999 V3000
M  V30 BEGIN CTAB
M  V30 COUNTS 18 18 0 0 0
M  V30 BEGIN ATOM
M  V30 1 C -2.18257 0.952998 0.431657 0
M  V30 2 C -1.07674 -0.00482951 0.217868 0
M  V30 3 C -1.41259 -1.32735 -0.0135821 0
M  V30 4 N -0.455696 -2.25275 -0.216342 0
M  V30 5 C 0.8528 -1.88644 -0.193846 0
M  V30 6 C 1.25174 -0.584764 0.0316168 0
M  V30 7 N 2.64028 -0.235554 0.0482091 0
M  V30 8 C 0.25833 0.349915 0.237326 0
M  V30 9 N 0.58717 1.68891 0.472017 0
M  V30 10 H -1.85086 1.9957 0.488903 0
M  V30 11 H -2.94446 0.763132 -0.349684 0
M  V30 12 H -2.66509 0.6652 1.40246 0
M  V30 13 H -2.43368 -1.68228 -0.0438115 0
M  V30 14 H 1.64693 -2.62602 -0.356893 0
M  V30 15 H 3.0416 0.502755 -0.570835 0
M  V30 16 H 3.31929 -0.708286 0.686128 0
M  V30 17 H 0.748977 2.02541 1.43801 0
M  V30 18 H 0.674581 2.36425 -0.308201 0
M  V30 END ATOM
M  V30 BEGIN BOND
M  V30 1 1 1 2
M  V30 2 2 2 3
M  V30 3 1 3 4
M  V30 4 2 4 5
M  V30 5 1 5 6
M  V30 6 1 6 7
M  V30 7 2 6 8
M  V30 8 1 8 9
M  V30 9 1 8 2
M  V30 10 1 1 10
M  V30 11 1 1 11
M  V30 12 1 1 12
M  V30 13 1 3 13
M  V30 14 1 5 14
M  V30 15 1 7 15
M  V30 16 1 7 16
M  V30 17 1 9 17
M  V30 18 1 9 18
M  V30 END BOND
M  V30 END CTAB
M  END
