
     RDKit          3D

  0  0  0  0  0  0  0  0  0  0999 V3000
M  V30 BEGIN CTAB
M  V30 COUNTS 22 22 0 0 0
M  V30 BEGIN ATOM
M  V30 1 N 3.6428 -0.594797 -0.976401 0
M  V30 2 C 2.45502 -0.85528 -0.157478 0
M  V30 3 C 2.39154 0.249829 0.872244 0
M  V30 4 S 0.9834 0.0879894 1.97409 0
M  V30 5 C -0.569837 0.308305 1.10696 0
M  V30 6 N -1.21307 -0.737155 0.55369 0
M  V30 7 C -2.38011 -0.623974 -0.10613 0
M  V30 8 N -3.04097 -1.74301 -0.68231 0
M  V30 9 C -2.97499 0.633597 -0.236978 0
M  V30 10 C -2.31645 1.69034 0.327164 0
M  V30 11 O -2.81474 2.8517 0.236219 0
M  V30 12 N -1.15138 1.51486 0.975089 0
M  V30 13 H 3.65829 0.453741 -1.13314 0
M  V30 14 H 4.46049 -0.795134 -0.356277 0
M  V30 15 H 1.56715 -0.753407 -0.809599 0
M  V30 16 H 2.58501 -1.84216 0.28736 0
M  V30 17 H 2.45526 1.23086 0.385151 0
M  V30 18 H 3.31045 0.150426 1.50637 0
M  V30 19 H -2.57973 -2.16767 -1.53401 0
M  V30 20 H -3.93236 -2.1371 -0.299303 0
M  V30 21 H -3.90463 0.755148 -0.75695 0
M  V30 22 H -0.631153 2.32289 1.41634 0
M  V30 END ATOM
M  V30 BEGIN BOND
M  V30 1 1 1 2
M  V30 2 1 2 3
M  V30 3 1 3 4
M  V30 4 1 4 5
M  V30 5 2 5 6
M  V30 6 1 6 7
M  V30 7 1 7 8
M  V30 8 2 7 9
M  V30 9 1 9 10
M  V30 10 2 10 11
M  V30 11 1 10 12
M  V30 12 1 12 5
M  V30 13 1 1 13
M  V30 14 1 1 14
M  V30 15 1 2 15
M  V30 16 1 2 16
M  V30 17 1 3 17
M  V30 18 1 3 18
M  V30 19 1 8 19
M  V30 20 1 8 20
M  V30 21 1 9 21
M  V30 22 1 12 22
M  V30 END BOND
M  V30 END CTAB
M  END
