
     RDKit          3D

  0  0  0  0  0  0  0  0  0  0999 V3000
M  V30 BEGIN CTAB
M  V30 COUNTS 47 48 0 0 0
M  V30 BEGIN ATOM
M  V30 1 C -5.70371 2.12427 -0.00441948 0
M  V30 2 C -5.64123 1.05366 -1.04151 0
M  V30 3 C -5.14147 -0.278142 -0.563183 0
M  V30 4 N -3.79314 -0.23744 -0.0226627 0
M  V30 5 C -3.49768 -0.0585045 1.27368 0
M  V30 6 C -4.44403 0.116301 2.42023 0
M  V30 7 C -2.12151 -0.0798713 1.38162 0
M  V30 8 C -1.59759 -0.275684 0.125018 0
M  V30 9 C -2.68167 -0.373786 -0.762413 0
M  V30 10 C -2.5695 -0.581289 -2.23585 0
M  V30 11 C -0.207307 -0.401901 -0.279014 0
M  V30 12 C 0.663002 -1.12954 0.364751 0
M  V30 13 C 2.05551 -1.1883 -0.133268 0
M  V30 14 O 2.38817 -0.543543 -1.1587 0
M  V30 15 O 3.01168 -1.93645 0.493712 0
M  V30 16 C 4.33916 -2.10132 0.158801 0
M  V30 17 C 5.18108 -0.894668 0.14856 0
M  V30 18 N 6.4729 -1.06681 -0.185392 0
M  V30 19 C 7.34737 -0.035216 -0.224174 0
M  V30 20 N 8.71053 -0.234534 -0.578268 0
M  V30 21 N 6.85896 1.17622 0.0885385 0
M  V30 22 C 5.57637 1.38532 0.425984 0
M  V30 23 N 4.7467 0.329609 0.450515 0
M  V30 24 N 5.11854 2.70437 0.747194 0
M  V30 25 C 0.268791 -1.87167 1.51957 0
M  V30 26 N -0.0404417 -2.50575 2.46447 0
M  V30 27 H -6.11448 3.04427 -0.523737 0
M  V30 28 H -4.69513 2.44314 0.34587 0
M  V30 29 H -6.42027 1.91919 0.814859 0
M  V30 30 H -4.91966 1.39215 -1.84221 0
M  V30 31 H -6.6104 0.943274 -1.57145 0
M  V30 32 H -5.13372 -0.954092 -1.4427 0
M  V30 33 H -5.82139 -0.709898 0.214086 0
M  V30 34 H -5.47042 -0.170761 2.14429 0
M  V30 35 H -4.1461 -0.640469 3.20667 0
M  V30 36 H -4.44759 1.13046 2.82865 0
M  V30 37 H -1.58886 0.0474729 2.3165 0
M  V30 38 H -1.87323 -1.4451 -2.42061 0
M  V30 39 H -2.24777 0.323067 -2.77173 0
M  V30 40 H -3.53414 -0.895702 -2.66629 0
M  V30 41 H 0.079472 0.165219 -1.18177 0
M  V30 42 H 4.78776 -2.78806 0.942601 0
M  V30 43 H 4.49819 -2.65801 -0.796543 0
M  V30 44 H 9.18143 -1.12256 -0.2955 0
M  V30 45 H 9.2675 0.462626 -1.10963 0
M  V30 46 H 4.15318 3.00875 0.545322 0
M  V30 47 H 5.75615 3.4097 1.20357 0
M  V30 END ATOM
M  V30 BEGIN BOND
M  V30 1 1 1 2
M  V30 2 1 2 3
M  V30 3 1 3 4
M  V30 4 1 4 5
M  V30 5 1 5 6
M  V30 6 2 5 7
M  V30 7 1 7 8
M  V30 8 2 8 9
M  V30 9 1 9 10
M  V30 10 1 8 11
M  V30 11 2 11 12 CFG=2
M  V30 12 1 12 13
M  V30 13 2 13 14
M  V30 14 1 13 15
M  V30 15 1 15 16
M  V30 16 1 16 17
M  V30 17 2 17 18
M  V30 18 1 18 19
M  V30 19 1 19 20
M  V30 20 2 19 21
M  V30 21 1 21 22
M  V30 22 2 22 23
M  V30 23 1 22 24
M  V30 24 1 12 25
M  V30 25 3 25 26
M  V30 26 1 9 4
M  V30 27 1 23 17
M  V30 28 1 1 27
M  V30 29 1 1 28
M  V30 30 1 1 29
M  V30 31 1 2 30
M  V30 32 1 2 31
M  V30 33 1 3 32
M  V30 34 1 3 33
M  V30 35 1 6 34
M  V30 36 1 6 35
M  V30 37 1 6 36
M  V30 38 1 7 37
M  V30 39 1 10 38
M  V30 40 1 10 39
M  V30 41 1 10 40
M  V30 42 1 11 41
M  V30 43 1 16 42
M  V30 44 1 16 43
M  V30 45 1 20 44
M  V30 46 1 20 45
M  V30 47 1 24 46
M  V30 48 1 24 47
M  V30 END BOND
M  V30 END CTAB
M  END
