
     RDKit          3D

  0  0  0  0  0  0  0  0  0  0999 V3000
M  V30 BEGIN CTAB
M  V30 COUNTS 52 53 0 0 0
M  V30 BEGIN ATOM
M  V30 1 C -6.779 1.01431 -0.466133 0
M  V30 2 C -5.40754 1.19432 0.0647808 0
M  V30 3 C -4.3689 0.219796 -0.413395 0
M  V30 4 C -3.08778 0.625661 0.291815 0
M  V30 5 O -3.17655 1.55006 1.13377 0
M  V30 6 N -1.85519 0.0205606 0.0402943 0
M  V30 7 C -0.596301 0.296801 0.631889 0
M  V30 8 C 0.518889 -0.171767 -0.0393121 0
M  V30 9 C 1.76824 0.0318831 0.462781 0
M  V30 10 C 1.92966 0.708893 1.64763 0
M  V30 11 C 0.827761 1.17792 2.32178 0
M  V30 12 C -0.462379 0.977645 1.82109 0
M  V30 13 O 3.22368 0.906055 2.14342 0
M  V30 14 C 4.3434 0.448615 1.49128 0
M  V30 15 C 4.96046 1.26642 0.570201 0
M  V30 16 C 6.10177 0.799094 -0.0939318 0
M  V30 17 C 6.61917 -0.456504 0.152973 0
M  V30 18 C 5.99534 -1.26874 1.07652 0
M  V30 19 C 4.86582 -0.804177 1.73272 0
M  V30 20 S 8.05491 -0.992723 -0.709627 0
M  V30 21 O 7.9847 -2.45567 -1.02032 0
M  V30 22 O 8.07508 -0.243793 -2.02106 0
M  V30 23 N 9.45225 -0.556714 0.172305 0
M  V30 24 C -4.77513 -1.14197 0.108566 0
M  V30 25 N -3.88874 -2.20408 -0.263446 0
M  V30 26 C -4.0818 0.228531 -1.86314 0
M  V30 27 C -5.19279 -0.076657 -2.79744 0
M  V30 28 H -7.03155 0.0525924 -0.900151 0
M  V30 29 H -6.95123 1.82458 -1.23557 0
M  V30 30 H -7.55249 1.16365 0.357281 0
M  V30 31 H -5.04939 2.26068 -0.0379152 0
M  V30 32 H -5.46017 1.05143 1.18493 0
M  V30 33 H -1.86699 -0.749399 -0.688084 0
M  V30 34 H 0.424466 -0.718109 -0.993061 0
M  V30 35 H 2.65762 -0.327488 -0.0478503 0
M  V30 36 H 0.941961 1.70933 3.25031 0
M  V30 37 H -1.29231 1.35852 2.39912 0
M  V30 38 H 4.59448 2.25172 0.344547 0
M  V30 39 H 6.61116 1.41318 -0.822259 0
M  V30 40 H 6.39688 -2.25162 1.27258 0
M  V30 41 H 4.36967 -1.42128 2.45207 0
M  V30 42 H 9.73323 -1.35679 0.785215 0
M  V30 43 H 10.2164 -0.341311 -0.526272 0
M  V30 44 H -4.83768 -1.07073 1.22954 0
M  V30 45 H -5.78899 -1.42668 -0.258604 0
M  V30 46 H -3.59703 -2.77218 0.579317 0
M  V30 47 H -4.29663 -2.88066 -0.942955 0
M  V30 48 H -3.69542 1.24836 -2.13698 0
M  V30 49 H -3.28207 -0.540705 -2.05902 0
M  V30 50 H -5.87512 0.741036 -3.04328 0
M  V30 51 H -4.70161 -0.332433 -3.79023 0
M  V30 52 H -5.71618 -1.0468 -2.54869 0
M  V30 END ATOM
M  V30 BEGIN BOND
M  V30 1 1 1 2
M  V30 2 1 2 3
M  V30 3 1 3 4
M  V30 4 2 4 5
M  V30 5 1 4 6
M  V30 6 1 6 7
M  V30 7 2 7 8
M  V30 8 1 8 9
M  V30 9 2 9 10
M  V30 10 1 10 11
M  V30 11 2 11 12
M  V30 12 1 10 13
M  V30 13 1 13 14
M  V30 14 2 14 15
M  V30 15 1 15 16
M  V30 16 2 16 17
M  V30 17 1 17 18
M  V30 18 2 18 19
M  V30 19 1 17 20
M  V30 20 2 20 21
M  V30 21 2 20 22
M  V30 22 1 20 23
M  V30 23 1 3 24
M  V30 24 1 24 25
M  V30 25 1 3 26
M  V30 26 1 26 27
M  V30 27 1 12 7
M  V30 28 1 19 14
M  V30 29 1 1 28
M  V30 30 1 1 29
M  V30 31 1 1 30
M  V30 32 1 2 31
M  V30 33 1 2 32
M  V30 34 1 6 33
M  V30 35 1 8 34
M  V30 36 1 9 35
M  V30 37 1 11 36
M  V30 38 1 12 37
M  V30 39 1 15 38
M  V30 40 1 16 39
M  V30 41 1 18 40
M  V30 42 1 19 41
M  V30 43 1 23 42
M  V30 44 1 23 43
M  V30 45 1 24 44
M  V30 46 1 24 45
M  V30 47 1 25 46
M  V30 48 1 25 47
M  V30 49 1 26 48
M  V30 50 1 26 49
M  V30 51 1 27 50
M  V30 52 1 27 51
M  V30 53 1 27 52
M  V30 END BOND
M  V30 END CTAB
M  END
