
     RDKit          3D

  0  0  0  0  0  0  0  0  0  0999 V3000
M  V30 BEGIN CTAB
M  V30 COUNTS 50 53 0 0 0
M  V30 BEGIN ATOM
M  V30 1 O 0.380926 -1.36613 -1.36179 0
M  V30 2 C 0.163245 -0.433366 -0.519277 0
M  V30 3 C -1.24214 -0.113123 -0.345674 0
M  V30 4 C -1.73059 0.857191 0.507873 0
M  V30 5 O -0.902803 1.61641 1.28059 0
M  V30 6 C -3.11287 1.07087 0.585349 0
M  V30 7 C -3.64358 2.01142 1.40771 0
M  V30 8 C -5.02824 2.20013 1.4619 0
M  V30 9 C -5.83027 1.42073 0.672776 0
M  V30 10 C -5.30409 0.462277 -0.166522 0
M  V30 11 C -3.94926 0.323453 -0.177226 0
M  V30 12 N -3.51313 -0.610695 -1.00187 0
M  V30 13 C -2.20051 -0.824562 -1.08558 0
M  V30 14 O -1.84664 -1.73709 -1.89743 0
M  V30 15 C -4.6477 -1.23582 -1.67697 0
M  V30 16 C -4.68128 -2.72437 -1.46544 0
M  V30 17 C -5.83869 -0.522516 -1.12238 0
M  V30 18 N 1.26818 0.139816 0.106155 0
M  V30 19 C 2.64044 -0.144029 -0.034088 0
M  V30 20 C 3.15389 -1.13113 -0.824798 0
M  V30 21 C 4.52529 -1.41093 -0.945698 0
M  V30 22 Cl 5.02319 -2.70751 -1.99939 0
M  V30 23 C 5.39532 -0.6479 -0.227607 0
M  V30 24 C 4.91016 0.346458 0.571563 0
M  V30 25 C 3.56368 0.622107 0.690762 0
M  V30 26 S 3.08833 1.91759 1.7309 0
M  V30 27 O 4.31374 2.54468 2.33061 0
M  V30 28 O 2.24587 1.4916 2.89538 0
M  V30 29 N 2.25632 3.19083 0.914773 0
M  V30 30 S 7.10608 -0.961178 -0.347996 0
M  V30 31 O 7.82852 0.00845474 0.553987 0
M  V30 32 O 7.58679 -0.821438 -1.77551 0
M  V30 33 N 7.44689 -2.55628 0.153042 0
M  V30 34 H -1.15555 2.32298 1.9111 0
M  V30 35 H -3.02518 2.6209 2.02401 0
M  V30 36 H -5.41421 2.96607 2.13561 0
M  V30 37 H -6.90686 1.54641 0.695515 0
M  V30 38 H -4.56027 -1.05877 -2.76945 0
M  V30 39 H -4.25049 -3.28001 -2.34225 0
M  V30 40 H -5.7236 -3.08561 -1.37438 0
M  V30 41 H -4.16898 -3.0367 -0.516196 0
M  V30 42 H -6.53602 -1.25273 -0.670777 0
M  V30 43 H -6.40385 -0.0396474 -1.95869 0
M  V30 44 H 1.10211 0.925148 0.822141 0
M  V30 45 H 2.48699 -1.75542 -1.40482 0
M  V30 46 H 5.63295 0.946688 1.13991 0
M  V30 47 H 1.74757 3.76691 1.60324 0
M  V30 48 H 2.96822 3.71841 0.361269 0
M  V30 49 H 8.19615 -2.60508 0.888107 0
M  V30 50 H 6.58596 -2.97551 0.567531 0
M  V30 END ATOM
M  V30 BEGIN BOND
M  V30 1 2 1 2
M  V30 2 1 2 3
M  V30 3 2 3 4
M  V30 4 1 4 5
M  V30 5 1 4 6
M  V30 6 2 6 7
M  V30 7 1 7 8
M  V30 8 2 8 9
M  V30 9 1 9 10
M  V30 10 2 10 11
M  V30 11 1 11 12
M  V30 12 1 12 13
M  V30 13 2 13 14
M  V30 14 1 12 15
M  V30 15 1 15 16
M  V30 16 1 15 17
M  V30 17 1 2 18
M  V30 18 1 18 19
M  V30 19 2 19 20
M  V30 20 1 20 21
M  V30 21 1 21 22
M  V30 22 2 21 23
M  V30 23 1 23 24
M  V30 24 2 24 25
M  V30 25 1 25 26
M  V30 26 2 26 27
M  V30 27 2 26 28
M  V30 28 1 26 29
M  V30 29 1 23 30
M  V30 30 2 30 31
M  V30 31 2 30 32
M  V30 32 1 30 33
M  V30 33 1 13 3
M  V30 34 1 25 19
M  V30 35 1 11 6
M  V30 36 1 17 10
M  V30 37 1 5 34
M  V30 38 1 7 35
M  V30 39 1 8 36
M  V30 40 1 9 37
M  V30 41 1 15 38
M  V30 42 1 16 39
M  V30 43 1 16 40
M  V30 44 1 16 41
M  V30 45 1 17 42
M  V30 46 1 17 43
M  V30 47 1 18 44
M  V30 48 1 20 45
M  V30 49 1 24 46
M  V30 50 1 29 47
M  V30 51 1 29 48
M  V30 52 1 33 49
M  V30 53 1 33 50
M  V30 END BOND
M  V30 END CTAB
M  END
