
     RDKit          3D

  0  0  0  0  0  0  0  0  0  0999 V3000
M  V30 BEGIN CTAB
M  V30 COUNTS 44 47 0 0 0
M  V30 BEGIN ATOM
M  V30 1 N 4.50133 -3.73007 -0.764317 0
M  V30 2 C 4.58621 -2.33338 -0.557934 0
M  V30 3 N 5.79531 -1.83353 0.0112041 0
M  V30 4 N 3.59241 -1.60219 -0.886128 0
M  V30 5 C 3.67002 -0.205277 -0.682765 0
M  V30 6 O 4.7869 0.366772 -0.727062 0
M  V30 7 C 2.44538 0.542986 -0.424953 0
M  V30 8 C 1.21722 -0.0913754 -0.377111 0
M  V30 9 C 0.0405444 0.591427 -0.134858 0
M  V30 10 C 0.0466314 1.94748 0.0707318 0
M  V30 11 C 1.27884 2.60647 0.0262107 0
M  V30 12 C 2.44231 1.90639 -0.217085 0
M  V30 13 C -1.29035 2.48068 0.30677 0
M  V30 14 C -1.77033 3.76903 0.555252 0
M  V30 15 C -3.10795 3.97637 0.738445 0
M  V30 16 C -3.97426 2.93502 0.680069 0
M  V30 17 C -3.48205 1.66028 0.432287 0
M  V30 18 C -2.14166 1.39775 0.240627 0
M  V30 19 C -1.37677 0.144906 -0.0335716 0
M  V30 20 C -1.57278 -0.870866 1.04687 0
M  V30 21 C -2.74648 -1.77979 0.875236 0
M  V30 22 C -2.87383 -2.37536 -0.508177 0
M  V30 23 N -1.677 -1.90783 -1.22845 0
M  V30 24 C -1.7366 -0.465499 -1.34735 0
M  V30 25 H 5.27103 -4.24503 -1.22974 0
M  V30 26 H 3.6546 -4.23896 -0.442988 0
M  V30 27 H 5.89514 -1.68419 1.04284 0
M  V30 28 H 6.57921 -1.6219 -0.644302 0
M  V30 29 H 1.24514 -1.16018 -0.542875 0
M  V30 30 H 1.26767 3.67962 0.190859 0
M  V30 31 H 3.37689 2.44098 -0.245555 0
M  V30 32 H -1.03897 4.56348 0.591733 0
M  V30 33 H -3.44495 4.98277 0.928278 0
M  V30 34 H -5.05351 3.09887 0.827285 0
M  V30 35 H -4.23834 0.884743 0.399628 0
M  V30 36 H -1.7686 -0.287701 1.99487 0
M  V30 37 H -0.675628 -1.5031 1.22352 0
M  V30 38 H -2.62729 -2.59433 1.64072 0
M  V30 39 H -3.72788 -1.32826 1.11769 0
M  V30 40 H -3.80114 -2.07678 -1.02698 0
M  V30 41 H -2.80507 -3.48642 -0.460287 0
M  V30 42 H -0.87555 -2.25435 -0.657704 0
M  V30 43 H -2.79198 -0.219802 -1.61592 0
M  V30 44 H -1.09386 -0.0798578 -2.15448 0
M  V30 END ATOM
M  V30 BEGIN BOND
M  V30 1 1 1 2
M  V30 2 1 2 3
M  V30 3 2 2 4
M  V30 4 1 4 5
M  V30 5 2 5 6
M  V30 6 1 5 7
M  V30 7 2 7 8
M  V30 8 1 8 9
M  V30 9 2 9 10
M  V30 10 1 10 11
M  V30 11 2 11 12
M  V30 12 1 10 13
M  V30 13 2 13 14
M  V30 14 1 14 15
M  V30 15 2 15 16
M  V30 16 1 16 17
M  V30 17 2 17 18
M  V30 18 1 18 19
M  V30 19 1 19 20
M  V30 20 1 20 21
M  V30 21 1 21 22
M  V30 22 1 22 23
M  V30 23 1 23 24
M  V30 24 1 12 7
M  V30 25 1 18 13
M  V30 26 1 24 19
M  V30 27 1 19 9
M  V30 28 1 1 25
M  V30 29 1 1 26
M  V30 30 1 3 27
M  V30 31 1 3 28
M  V30 32 1 8 29
M  V30 33 1 11 30
M  V30 34 1 12 31
M  V30 35 1 14 32
M  V30 36 1 15 33
M  V30 37 1 16 34
M  V30 38 1 17 35
M  V30 39 1 20 36
M  V30 40 1 20 37
M  V30 41 1 21 38
M  V30 42 1 21 39
M  V30 43 1 22 40
M  V30 44 1 22 41
M  V30 45 1 23 42
M  V30 46 1 24 43
M  V30 47 1 24 44
M  V30 END BOND
M  V30 END CTAB
M  END
