
     RDKit          3D

  0  0  0  0  0  0  0  0  0  0999 V3000
M  V30 BEGIN CTAB
M  V30 COUNTS 31 33 0 0 0
M  V30 BEGIN ATOM
M  V30 1 N 6.31946 0.372775 -0.189548 0
M  V30 2 C 4.93563 0.0538128 -0.142176 0
M  V30 3 N 4.02859 1.05489 -0.0817038 0
M  V30 4 C 2.70703 0.810424 -0.035013 0
M  V30 5 N 1.71654 1.82769 0.0291692 0
M  V30 6 C 2.28028 -0.500846 -0.0499099 0
M  V30 7 C 1.0514 -1.12516 -0.016159 0
M  V30 8 C -0.228758 -0.381551 0.0528957 0
M  V30 9 S -1.65105 -1.50836 0.0821122 0
M  V30 10 C -3.12066 -0.494242 0.165233 0
M  V30 11 C -3.75297 -0.0616797 -1.00455 0
M  V30 12 C -4.87919 0.715512 -0.933131 0
M  V30 13 C -5.38806 1.07041 0.292536 0
M  V30 14 C -4.79511 0.665014 1.46526 0
M  V30 15 C -3.65737 -0.120217 1.36293 0
M  V30 16 C 1.23503 -2.46875 -0.0561476 0
M  V30 17 O 2.52959 -2.69405 -0.113179 0
M  V30 18 C 3.19558 -1.55944 -0.112109 0
M  V30 19 N 4.49255 -1.21617 -0.155416 0
M  V30 20 H 6.9204 0.103295 -0.99636 0
M  V30 21 H 6.77206 0.890967 0.592535 0
M  V30 22 H 1.33507 2.14717 0.943909 0
M  V30 23 H 1.3866 2.24113 -0.867311 0
M  V30 24 H -0.317712 0.205015 -0.888549 0
M  V30 25 H -0.259016 0.349465 0.87558 0
M  V30 26 H -3.3175 -0.365067 -1.9463 0
M  V30 27 H -5.32965 1.02333 -1.87565 0
M  V30 28 H -6.27561 1.68288 0.341252 0
M  V30 29 H -5.20193 0.948739 2.44489 0
M  V30 30 H -3.17966 -0.44688 2.29443 0
M  V30 31 H 0.448425 -3.22009 -0.043095 0
M  V30 END ATOM
M  V30 BEGIN BOND
M  V30 1 1 1 2
M  V30 2 2 2 3
M  V30 3 1 3 4
M  V30 4 1 4 5
M  V30 5 2 4 6
M  V30 6 1 6 7
M  V30 7 1 7 8
M  V30 8 1 8 9
M  V30 9 1 9 10
M  V30 10 2 10 11
M  V30 11 1 11 12
M  V30 12 2 12 13
M  V30 13 1 13 14
M  V30 14 2 14 15
M  V30 15 2 7 16
M  V30 16 1 16 17
M  V30 17 1 17 18
M  V30 18 2 18 19
M  V30 19 1 19 2
M  V30 20 1 18 6
M  V30 21 1 15 10
M  V30 22 1 1 20
M  V30 23 1 1 21
M  V30 24 1 5 22
M  V30 25 1 5 23
M  V30 26 1 8 24
M  V30 27 1 8 25
M  V30 28 1 11 26
M  V30 29 1 12 27
M  V30 30 1 13 28
M  V30 31 1 14 29
M  V30 32 1 15 30
M  V30 33 1 16 31
M  V30 END BOND
M  V30 END CTAB
M  END
