
     RDKit          3D

  0  0  0  0  0  0  0  0  0  0999 V3000
M  V30 BEGIN CTAB
M  V30 COUNTS 23 23 0 0 0
M  V30 BEGIN ATOM
M  V30 1 N -3.53976 1.08458 -0.0557466 0
M  V30 2 C -3.28453 -0.351508 0.112883 0
M  V30 3 C -1.84486 -0.521477 0.51519 0
M  V30 4 N -0.912711 -0.0139632 -0.442743 0
M  V30 5 C 0.466771 -0.111245 -0.186821 0
M  V30 6 C 1.40954 0.368942 -1.09033 0
M  V30 7 C 2.74816 0.244274 -0.782281 0
M  V30 8 N 3.72511 0.741869 -1.71854 0
M  V30 9 N 3.15254 -0.328047 0.365492 0
M  V30 10 C 2.23785 -0.791092 1.23649 0
M  V30 11 N 0.949006 -0.671892 0.941539 0
M  V30 12 O 2.68874 -1.38306 2.42518 0
M  V30 13 H -3.60699 1.31882 -1.06688 0
M  V30 14 H -4.3613 1.39942 0.499645 0
M  V30 15 H -3.46206 -0.871147 -0.826396 0
M  V30 16 H -3.95436 -0.689555 0.927964 0
M  V30 17 H -1.66698 -1.62974 0.586386 0
M  V30 18 H -1.62116 -0.0438535 1.4948 0
M  V30 19 H -1.22911 0.420375 -1.31422 0
M  V30 20 H 1.11317 0.835909 -2.0253 0
M  V30 21 H 4.69148 0.353796 -1.65459 0
M  V30 22 H 3.4807 1.45334 -2.42453 0
M  V30 23 H 2.82074 -0.814741 3.23789 0
M  V30 END ATOM
M  V30 BEGIN BOND
M  V30 1 1 1 2
M  V30 2 1 2 3
M  V30 3 1 3 4
M  V30 4 1 4 5
M  V30 5 2 5 6
M  V30 6 1 6 7
M  V30 7 1 7 8
M  V30 8 2 7 9
M  V30 9 1 9 10
M  V30 10 2 10 11
M  V30 11 1 10 12
M  V30 12 1 11 5
M  V30 13 1 1 13
M  V30 14 1 1 14
M  V30 15 1 2 15
M  V30 16 1 2 16
M  V30 17 1 3 17
M  V30 18 1 3 18
M  V30 19 1 4 19
M  V30 20 1 6 20
M  V30 21 1 8 21
M  V30 22 1 8 22
M  V30 23 1 12 23
M  V30 END BOND
M  V30 END CTAB
M  END
