
     RDKit          3D

  0  0  0  0  0  0  0  0  0  0999 V3000
M  V30 BEGIN CTAB
M  V30 COUNTS 23 23 0 0 0
M  V30 BEGIN ATOM
M  V30 1 N 3.1701 1.26608 -0.193128 0
M  V30 2 C 2.59714 0.708175 1.02623 0
M  V30 3 C 2.27642 -0.738578 0.762174 0
M  V30 4 S 1.11235 -0.990496 -0.554578 0
M  V30 5 C -0.545113 -0.458237 -0.20601 0
M  V30 6 C -0.971792 0.0467937 0.999837 0
M  V30 7 C -2.28284 0.462751 1.22113 0
M  V30 8 C -3.20332 0.372093 0.204093 0
M  V30 9 C -2.8039 -0.130437 -1.0149 0
M  V30 10 C -1.48211 -0.541585 -1.21331 0
M  V30 11 N -1.08818 -1.05622 -2.47276 0
M  V30 12 Br -5.01246 0.943286 0.501506 0
M  V30 13 H 2.40823 1.65527 -0.752303 0
M  V30 14 H 3.74466 0.583654 -0.710016 0
M  V30 15 H 1.69192 1.27941 1.24608 0
M  V30 16 H 3.36874 0.787748 1.82602 0
M  V30 17 H 1.99641 -1.25203 1.71196 0
M  V30 18 H 3.25186 -1.22109 0.474753 0
M  V30 19 H -0.258475 0.114087 1.80886 0
M  V30 20 H -2.54763 0.855603 2.21203 0
M  V30 21 H -3.52417 -0.208082 -1.83139 0
M  V30 22 H -1.35144 -0.534841 -3.33197 0
M  V30 23 H -0.546402 -1.94336 -2.4802 0
M  V30 END ATOM
M  V30 BEGIN BOND
M  V30 1 1 1 2
M  V30 2 1 2 3
M  V30 3 1 3 4
M  V30 4 1 4 5
M  V30 5 2 5 6
M  V30 6 1 6 7
M  V30 7 2 7 8
M  V30 8 1 8 9
M  V30 9 2 9 10
M  V30 10 1 10 11
M  V30 11 1 8 12
M  V30 12 1 10 5
M  V30 13 1 1 13
M  V30 14 1 1 14
M  V30 15 1 2 15
M  V30 16 1 2 16
M  V30 17 1 3 17
M  V30 18 1 3 18
M  V30 19 1 6 19
M  V30 20 1 7 20
M  V30 21 1 9 21
M  V30 22 1 11 22
M  V30 23 1 11 23
M  V30 END BOND
M  V30 END CTAB
M  END
