
     RDKit          3D

  0  0  0  0  0  0  0  0  0  0999 V3000
M  V30 BEGIN CTAB
M  V30 COUNTS 38 38 0 0 0
M  V30 BEGIN ATOM
M  V30 1 C -3.56421 -2.81016 -0.265638 0
M  V30 2 O -2.58578 -1.82477 -0.516845 0
M  V30 3 C -2.97568 -0.497835 -0.595008 0
M  V30 4 C -2.00204 0.493604 -0.84603 0
M  V30 5 O -0.773705 0.133762 -0.995811 0
M  V30 6 C 0.46832 -0.220256 -1.14827 0
M  V30 7 C 1.43332 0.394325 -0.131287 0 CFG=1
M  V30 8 C 2.78838 -0.295984 -0.185925 0
M  V30 9 O 2.50124 -1.68167 -0.169021 0
M  V30 10 S 3.88117 -2.60614 -0.223535 0
M  V30 11 N 5.29233 -1.68777 0.151217 0
M  V30 12 O 4.01408 -3.21973 -1.60068 0
M  V30 13 O 3.82122 -3.75948 0.756712 0
M  V30 14 O 1.47978 1.73676 -0.138308 0
M  V30 15 S 0.973686 2.57451 1.16772 0
M  V30 16 N 2.29399 3.13771 2.16787 0
M  V30 17 O 0.185047 1.63348 2.04639 0
M  V30 18 O 0.112344 3.74709 0.89966 0
M  V30 19 C -2.41571 1.84554 -0.923193 0
M  V30 20 C -3.72529 2.1909 -0.759625 0
M  V30 21 C -4.64465 1.19338 -0.516237 0
M  V30 22 C -4.26898 -0.124337 -0.436859 0
M  V30 23 H -4.08515 -2.51188 0.673006 0
M  V30 24 H -3.14744 -3.81318 -0.155356 0
M  V30 25 H -4.35551 -2.80899 -1.0491 0
M  V30 26 H 0.831559 -0.0225442 -2.18977 0
M  V30 27 H 0.675476 -1.34498 -1.0457 0
M  V30 28 H 1.01481 0.0771672 0.852236 0
M  V30 29 H 3.34187 -0.0927257 0.736809 0
M  V30 30 H 3.32824 -0.0955135 -1.11058 0
M  V30 31 H 5.95791 -1.64691 -0.652651 0
M  V30 32 H 5.74914 -2.01723 1.03275 0
M  V30 33 H 2.90363 3.70983 1.51482 0
M  V30 34 H 1.89549 3.84706 2.83014 0
M  V30 35 H -1.66927 2.60177 -1.11512 0
M  V30 36 H -4.05557 3.22799 -0.817338 0
M  V30 37 H -5.67339 1.45419 -0.386878 0
M  V30 38 H -5.00065 -0.916957 -0.243211 0
M  V30 END ATOM
M  V30 BEGIN BOND
M  V30 1 1 1 2
M  V30 2 1 2 3
M  V30 3 2 3 4
M  V30 4 1 4 5
M  V30 5 1 5 6
M  V30 6 1 6 7
M  V30 7 1 7 8
M  V30 8 1 8 9
M  V30 9 1 9 10
M  V30 10 1 10 11
M  V30 11 2 10 12
M  V30 12 2 10 13
M  V30 13 1 7 14
M  V30 14 1 14 15
M  V30 15 1 15 16
M  V30 16 2 15 17
M  V30 17 2 15 18
M  V30 18 1 4 19
M  V30 19 2 19 20
M  V30 20 1 20 21
M  V30 21 2 21 22
M  V30 22 1 22 3
M  V30 23 1 1 23
M  V30 24 1 1 24
M  V30 25 1 1 25
M  V30 26 1 6 26
M  V30 27 1 6 27
M  V30 28 1 7 28 CFG=1
M  V30 29 1 8 29
M  V30 30 1 8 30
M  V30 31 1 11 31
M  V30 32 1 11 32
M  V30 33 1 16 33
M  V30 34 1 16 34
M  V30 35 1 19 35
M  V30 36 1 20 36
M  V30 37 1 21 37
M  V30 38 1 22 38
M  V30 END BOND
M  V30 END CTAB
M  END
