
     RDKit          3D

  0  0  0  0  0  0  0  0  0  0999 V3000
M  V30 BEGIN CTAB
M  V30 COUNTS 31 31 0 0 0
M  V30 BEGIN ATOM
M  V30 1 N 3.3564 1.32538 2.18285 0
M  V30 2 C 2.68119 0.576617 1.16465 0
M  V30 3 N 3.32614 -0.409125 0.516062 0
M  V30 4 C 2.68655 -1.11689 -0.446995 0
M  V30 5 N 3.43564 -2.14376 -1.08781 0
M  V30 6 N 1.40159 -0.849566 -0.771808 0
M  V30 7 C 0.699831 0.12287 -0.161527 0
M  V30 8 C 1.37833 0.836064 0.824253 0
M  V30 9 N -0.643961 0.43832 -0.467018 0
M  V30 10 C -1.78662 -0.159889 0.175306 0
M  V30 11 C -1.43504 -1.16669 1.21756 0
M  V30 12 C -2.72442 -0.809479 -0.821666 0
M  V30 13 C -2.60518 0.939687 0.866094 0
M  V30 14 C -0.898157 1.42974 -1.49488 0
M  V30 15 H 2.90562 1.51043 3.10215 0
M  V30 16 H 4.31672 1.71153 2.0463 0
M  V30 17 H 3.53042 -2.2241 -2.12352 0
M  V30 18 H 3.90529 -2.83897 -0.499303 0
M  V30 19 H 0.871275 1.63154 1.35368 0
M  V30 20 H -0.751368 -1.94009 0.79747 0
M  V30 21 H -2.38008 -1.72794 1.46381 0
M  V30 22 H -1.07975 -0.743517 2.16895 0
M  V30 23 H -2.17922 -1.12533 -1.73305 0
M  V30 24 H -3.58617 -0.126777 -1.07211 0
M  V30 25 H -3.20036 -1.70905 -0.351989 0
M  V30 26 H -2.68739 1.76192 0.126459 0
M  V30 27 H -2.07027 1.24721 1.78847 0
M  V30 28 H -3.59567 0.469769 1.08232 0
M  V30 29 H -1.95805 1.44911 -1.81926 0
M  V30 30 H -0.666507 2.46201 -1.14268 0
M  V30 31 H -0.246791 1.17895 -2.3619 0
M  V30 END ATOM
M  V30 BEGIN BOND
M  V30 1 1 1 2
M  V30 2 2 2 3
M  V30 3 1 3 4
M  V30 4 1 4 5
M  V30 5 2 4 6
M  V30 6 1 6 7
M  V30 7 2 7 8
M  V30 8 1 7 9
M  V30 9 1 9 10
M  V30 10 1 10 11
M  V30 11 1 10 12
M  V30 12 1 10 13
M  V30 13 1 9 14
M  V30 14 1 8 2
M  V30 15 1 1 15
M  V30 16 1 1 16
M  V30 17 1 5 17
M  V30 18 1 5 18
M  V30 19 1 8 19
M  V30 20 1 11 20
M  V30 21 1 11 21
M  V30 22 1 11 22
M  V30 23 1 12 23
M  V30 24 1 12 24
M  V30 25 1 12 25
M  V30 26 1 13 26
M  V30 27 1 13 27
M  V30 28 1 13 28
M  V30 29 1 14 29
M  V30 30 1 14 30
M  V30 31 1 14 31
M  V30 END BOND
M  V30 END CTAB
M  END
