
     RDKit          3D

  0  0  0  0  0  0  0  0  0  0999 V3000
M  V30 BEGIN CTAB
M  V30 COUNTS 16 16 0 0 0
M  V30 BEGIN ATOM
M  V30 1 N 2.42385 -0.844732 0.33159 0
M  V30 2 C 1.51777 0.0107632 -0.340069 0
M  V30 3 S 2.09601 1.24338 -1.23671 0
M  V30 4 C 0.0732563 -0.183574 -0.249787 0
M  V30 5 C -0.533343 -1.36115 -0.629348 0
M  V30 6 N -1.86557 -1.50719 -0.533441 0
M  V30 7 C -2.6812 -0.54282 -0.0733187 0
M  V30 8 N -2.10547 0.609636 0.300186 0
M  V30 9 C -0.76385 0.808182 0.223209 0
M  V30 10 N -0.158547 2.02075 0.616248 0
M  V30 11 H 2.83194 -1.63348 -0.200699 0
M  V30 12 H 2.67904 -0.703524 1.31145 0
M  V30 13 H 0.123561 -2.14624 -1.00313 0
M  V30 14 H -3.75895 -0.69504 -0.00869837 0
M  V30 15 H 0.0928112 2.70185 -0.109759 0
M  V30 16 H 0.0286863 2.22319 1.60228 0
M  V30 END ATOM
M  V30 BEGIN BOND
M  V30 1 1 1 2
M  V30 2 2 2 3
M  V30 3 1 2 4
M  V30 4 2 4 5
M  V30 5 1 5 6
M  V30 6 2 6 7
M  V30 7 1 7 8
M  V30 8 2 8 9
M  V30 9 1 9 10
M  V30 10 1 9 4
M  V30 11 1 1 11
M  V30 12 1 1 12
M  V30 13 1 5 13
M  V30 14 1 7 14
M  V30 15 1 10 15
M  V30 16 1 10 16
M  V30 END BOND
M  V30 END CTAB
M  END
