
     RDKit          3D

  0  0  0  0  0  0  0  0  0  0999 V3000
M  V30 BEGIN CTAB
M  V30 COUNTS 17 16 0 0 0
M  V30 BEGIN ATOM
M  V30 1 N 3.61644 0.407253 0.352552 0
M  V30 2 C 2.34148 0.264771 1.05086 0
M  V30 3 C 1.26567 0.166457 0.00955286 0
M  V30 4 O 1.53571 0.211325 -1.21786 0
M  V30 5 O -0.065054 0.0220055 0.405333 0
M  V30 6 C -1.11066 -0.0748824 -0.508027 0
M  V30 7 O -0.815459 -0.0274968 -1.72461 0
M  V30 8 C -2.52143 -0.228079 -0.086616 0
M  V30 9 N -3.34487 -0.29802 -1.2748 0
M  V30 10 H 3.62403 -0.336796 -0.381165 0
M  V30 11 H 3.56367 1.32222 -0.152412 0
M  V30 12 H 2.13371 1.15042 1.67091 0
M  V30 13 H 2.3448 -0.657669 1.68074 0
M  V30 14 H -2.67173 -1.14789 0.508045 0
M  V30 15 H -2.7954 0.686991 0.511364 0
M  V30 16 H -2.82115 -0.765097 -2.06109 0
M  V30 17 H -4.27976 -0.695509 -1.10523 0
M  V30 END ATOM
M  V30 BEGIN BOND
M  V30 1 1 1 2
M  V30 2 1 2 3
M  V30 3 2 3 4
M  V30 4 1 3 5
M  V30 5 1 5 6
M  V30 6 2 6 7
M  V30 7 1 6 8
M  V30 8 1 8 9
M  V30 9 1 1 10
M  V30 10 1 1 11
M  V30 11 1 2 12
M  V30 12 1 2 13
M  V30 13 1 8 14
M  V30 14 1 8 15
M  V30 15 1 9 16
M  V30 16 1 9 17
M  V30 END BOND
M  V30 END CTAB
M  END
