
     RDKit          3D

  0  0  0  0  0  0  0  0  0  0999 V3000
M  V30 BEGIN CTAB
M  V30 COUNTS 22 22 0 0 0
M  V30 BEGIN ATOM
M  V30 1 N -2.98968 0.365516 0.212264 0
M  V30 2 C -1.70691 0.55076 0.783172 0
M  V30 3 C -0.671338 0.191285 -0.266302 0 CFG=2
M  V30 4 C -0.746028 -1.21597 -0.763719 0
M  V30 5 C 0.720798 -1.37522 -0.414982 0
M  V30 6 C 0.708368 -0.0492373 0.318156 0 CFG=1
M  V30 7 C 1.71142 0.917618 -0.232899 0
M  V30 8 N 3.00936 0.660431 0.343283 0
M  V30 9 H -3.22102 0.951269 -0.560972 0
M  V30 10 H -3.38058 -0.545763 0.260935 0
M  V30 11 H -1.51992 1.58317 1.12775 0
M  V30 12 H -1.62176 -0.0964313 1.68297 0
M  V30 13 H -0.674183 0.968092 -1.06379 0
M  V30 14 H -1.41801 -1.83316 -0.16165 0
M  V30 15 H -0.896329 -1.3349 -1.86432 0
M  V30 16 H 1.40148 -1.40442 -1.28658 0
M  V30 17 H 0.892681 -2.24022 0.22593 0
M  V30 18 H 0.693792 -0.183467 1.40978 0
M  V30 19 H 1.40483 1.97167 -0.124171 0
M  V30 20 H 1.80767 0.733054 -1.33137 0
M  V30 21 H 3.00047 -0.119868 1.03146 0
M  V30 22 H 3.49491 1.5058 0.675059 0
M  V30 END ATOM
M  V30 BEGIN BOND
M  V30 1 1 1 2
M  V30 2 1 2 3
M  V30 3 1 3 4
M  V30 4 1 4 5
M  V30 5 1 5 6
M  V30 6 1 6 7
M  V30 7 1 7 8
M  V30 8 1 6 3
M  V30 9 1 1 9
M  V30 10 1 1 10
M  V30 11 1 2 11
M  V30 12 1 2 12
M  V30 13 1 3 13 CFG=3
M  V30 14 1 4 14
M  V30 15 1 4 15
M  V30 16 1 5 16
M  V30 17 1 5 17
M  V30 18 1 6 18 CFG=1
M  V30 19 1 7 19
M  V30 20 1 7 20
M  V30 21 1 8 21
M  V30 22 1 8 22
M  V30 END BOND
M  V30 END CTAB
M  END
