
     RDKit          3D

  0  0  0  0  0  0  0  0  0  0999 V3000
M  V30 BEGIN CTAB
M  V30 COUNTS 44 46 0 0 0
M  V30 BEGIN ATOM
M  V30 1 C -7.14521 0.543398 -1.00669 0
M  V30 2 O -6.49385 -0.338112 -0.127678 0
M  V30 3 C -5.08803 -0.285428 -0.0807723 0
M  V30 4 C -4.3642 0.579965 -0.849856 0
M  V30 5 C -2.99019 0.624372 -0.79731 0
M  V30 6 C -2.34964 -0.242586 0.0671551 0
M  V30 7 C -3.05384 -1.13932 0.867244 0
M  V30 8 C -4.41205 -1.13296 0.767746 0
M  V30 9 N -2.3262 -1.99534 1.72731 0
M  V30 10 N -0.932464 -0.179981 0.105507 0
M  V30 11 C -0.213225 0.138019 1.31954 0
M  V30 12 C 1.06115 0.857035 0.891561 0
M  V30 13 N 1.84586 -0.0114774 0.0445072 0
M  V30 14 C 1.14644 -1.05572 -0.67021 0
M  V30 15 C -0.19357 -0.44161 -1.10266 0
M  V30 16 C 3.25506 0.183475 -0.0672972 0
M  V30 17 C 3.86605 1.29712 0.493785 0
M  V30 18 C 5.22803 1.49369 0.398202 0
M  V30 19 C 6.05889 0.606872 -0.253136 0
M  V30 20 C 5.46762 -0.502236 -0.814647 0
M  V30 21 C 4.08906 -0.700004 -0.717081 0
M  V30 22 N 7.46142 0.851072 -0.327008 0
M  V30 23 H -6.66476 0.41592 -2.01494 0
M  V30 24 H -8.21068 0.336004 -1.09277 0
M  V30 25 H -7.0116 1.60743 -0.666804 0
M  V30 26 H -4.8717 1.26983 -1.53758 0
M  V30 27 H -2.42711 1.30874 -1.40616 0
M  V30 28 H -4.96884 -1.82999 1.38901 0
M  V30 29 H -2.19227 -1.72433 2.71402 0
M  V30 30 H -1.92554 -2.88571 1.391 0
M  V30 31 H 0.118132 -0.808606 1.83787 0
M  V30 32 H -0.786702 0.737461 2.02469 0
M  V30 33 H 1.61689 1.12366 1.82458 0
M  V30 34 H 0.817982 1.76774 0.333199 0
M  V30 35 H 0.872325 -1.88427 0.0426056 0
M  V30 36 H 1.67977 -1.44687 -1.545 0
M  V30 37 H 0.0628592 0.501895 -1.62401 0
M  V30 38 H -0.720102 -1.10578 -1.80921 0
M  V30 39 H 3.23636 2.0084 1.00805 0
M  V30 40 H 5.71319 2.37178 0.840164 0
M  V30 41 H 6.10427 -1.20302 -1.3263 0
M  V30 42 H 3.64119 -1.58662 -1.16668 0
M  V30 43 H 8.01464 1.28414 0.444874 0
M  V30 44 H 7.98457 0.591948 -1.18762 0
M  V30 END ATOM
M  V30 BEGIN BOND
M  V30 1 1 1 2
M  V30 2 1 2 3
M  V30 3 2 3 4
M  V30 4 1 4 5
M  V30 5 2 5 6
M  V30 6 1 6 7
M  V30 7 2 7 8
M  V30 8 1 7 9
M  V30 9 1 6 10
M  V30 10 1 10 11
M  V30 11 1 11 12
M  V30 12 1 12 13
M  V30 13 1 13 14
M  V30 14 1 14 15
M  V30 15 1 13 16
M  V30 16 2 16 17
M  V30 17 1 17 18
M  V30 18 2 18 19
M  V30 19 1 19 20
M  V30 20 2 20 21
M  V30 21 1 19 22
M  V30 22 1 8 3
M  V30 23 1 15 10
M  V30 24 1 21 16
M  V30 25 1 1 23
M  V30 26 1 1 24
M  V30 27 1 1 25
M  V30 28 1 4 26
M  V30 29 1 5 27
M  V30 30 1 8 28
M  V30 31 1 9 29
M  V30 32 1 9 30
M  V30 33 1 11 31
M  V30 34 1 11 32
M  V30 35 1 12 33
M  V30 36 1 12 34
M  V30 37 1 14 35
M  V30 38 1 14 36
M  V30 39 1 15 37
M  V30 40 1 15 38
M  V30 41 1 17 39
M  V30 42 1 18 40
M  V30 43 1 20 41
M  V30 44 1 21 42
M  V30 45 1 22 43
M  V30 46 1 22 44
M  V30 END BOND
M  V30 END CTAB
M  END
