
     RDKit          3D

  0  0  0  0  0  0  0  0  0  0999 V3000
M  V30 BEGIN CTAB
M  V30 COUNTS 26 27 0 0 0
M  V30 BEGIN ATOM
M  V30 1 N -3.1737 -2.26872 0.195665 0
M  V30 2 C -2.40185 -1.08129 0.0911809 0
M  V30 3 N -1.06824 -1.06043 0.241879 0
M  V30 4 C -0.322529 0.0515036 0.146704 0
M  V30 5 N -0.963126 1.20732 -0.11582 0
M  V30 6 C -2.29235 1.29887 -0.284348 0
M  V30 7 C -3.02221 0.117876 -0.176075 0
M  V30 8 N -2.93085 2.53286 -0.559332 0
M  V30 9 N 1.10352 0.018278 0.316992 0
M  V30 10 C 1.82762 -1.20621 0.600391 0
M  V30 11 C 3.14776 -0.918043 -0.127303 0
M  V30 12 C 3.39324 0.508133 0.3112 0
M  V30 13 C 2.02543 1.12401 0.243017 0
M  V30 14 H -2.80485 -3.17577 -0.170632 0
M  V30 15 H -4.12238 -2.30544 0.629335 0
M  V30 16 H -4.0905 0.203381 -0.313449 0
M  V30 17 H -2.91115 2.97119 -1.49398 0
M  V30 18 H -3.43205 3.00256 0.212641 0
M  V30 19 H 2.04233 -1.36146 1.65607 0
M  V30 20 H 1.37647 -2.08395 0.0972479 0
M  V30 21 H 3.93135 -1.60882 0.246496 0
M  V30 22 H 2.9884 -1.00659 -1.2205 0
M  V30 23 H 3.75188 0.461104 1.36957 0
M  V30 24 H 4.12384 1.02792 -0.338793 0
M  V30 25 H 1.95791 1.67553 -0.722348 0
M  V30 26 H 1.86602 1.87619 1.03581 0
M  V30 END ATOM
M  V30 BEGIN BOND
M  V30 1 1 1 2
M  V30 2 2 2 3
M  V30 3 1 3 4
M  V30 4 2 4 5
M  V30 5 1 5 6
M  V30 6 2 6 7
M  V30 7 1 6 8
M  V30 8 1 4 9
M  V30 9 1 9 10
M  V30 10 1 10 11
M  V30 11 1 11 12
M  V30 12 1 12 13
M  V30 13 1 7 2
M  V30 14 1 13 9
M  V30 15 1 1 14
M  V30 16 1 1 15
M  V30 17 1 7 16
M  V30 18 1 8 17
M  V30 19 1 8 18
M  V30 20 1 10 19
M  V30 21 1 10 20
M  V30 22 1 11 21
M  V30 23 1 11 22
M  V30 24 1 12 23
M  V30 25 1 12 24
M  V30 26 1 13 25
M  V30 27 1 13 26
M  V30 END BOND
M  V30 END CTAB
M  END
