
     RDKit          3D

  0  0  0  0  0  0  0  0  0  0999 V3000
M  V30 BEGIN CTAB
M  V30 COUNTS 42 43 0 0 0
M  V30 BEGIN ATOM
M  V30 1 N 5.37032 0.782785 1.79699 0
M  V30 2 C 4.52397 0.862841 0.660568 0
M  V30 3 C 5.01553 1.43042 -0.561787 0
M  V30 4 C 4.18171 1.49257 -1.64994 0
M  V30 5 C 2.90104 1.02856 -1.59941 0
M  V30 6 C 2.43987 0.4859 -0.424785 0
M  V30 7 C 3.24099 0.413306 0.663115 0
M  V30 8 N 1.05958 -0.0344135 -0.34632 0
M  V30 9 C 0.0104292 0.855255 -0.349773 0
M  V30 10 O 0.493121 2.10706 -0.646559 0
M  V30 11 N -1.34929 0.907073 -0.149311 0
M  V30 12 C -2.25973 -0.0900785 0.266426 0
M  V30 13 C -2.29268 -0.569021 1.56981 0
M  V30 14 C -3.18226 -1.51583 2.00282 0
M  V30 15 C -4.13809 -2.07582 1.14347 0
M  V30 16 C -4.10011 -1.59453 -0.144139 0
M  V30 17 C -3.23028 -0.666783 -0.579714 0
M  V30 18 N -5.02048 -2.13548 -1.08932 0
M  V30 19 C -2.04153 2.18039 -0.389161 0
M  V30 20 O -1.39465 3.13885 -0.801059 0
M  V30 21 C -3.49596 2.33742 -0.146082 0
M  V30 22 C 1.02858 -1.4418 -0.344217 0
M  V30 23 O -0.0110749 -2.10331 -0.381995 0
M  V30 24 C 2.33538 -2.22733 -0.282845 0
M  V30 25 H 6.28465 0.320103 1.7973 0
M  V30 26 H 5.04329 1.22022 2.68922 0
M  V30 27 H 6.01961 1.77608 -0.537782 0
M  V30 28 H 4.56574 1.92586 -2.59021 0
M  V30 29 H 2.2446 1.08088 -2.46243 0
M  V30 30 H 2.90568 -0.0156406 1.62893 0
M  V30 31 H -1.53612 -0.113059 2.23394 0
M  V30 32 H -3.128 -1.8315 3.04039 0
M  V30 33 H -4.83844 -2.82315 1.46989 0
M  V30 34 H -3.19656 -0.284587 -1.60829 0
M  V30 35 H -4.81279 -3.09073 -1.51455 0
M  V30 36 H -5.89212 -1.67284 -1.40749 0
M  V30 37 H -3.74877 3.43276 -0.0868275 0
M  V30 38 H -4.09389 1.82441 -0.92063 0
M  V30 39 H -3.72129 1.85044 0.838588 0
M  V30 40 H 2.6667 -2.24167 0.757705 0
M  V30 41 H 2.11278 -3.24074 -0.610576 0
M  V30 42 H 3.04054 -1.68489 -0.933957 0
M  V30 END ATOM
M  V30 BEGIN BOND
M  V30 1 1 1 2
M  V30 2 2 2 3
M  V30 3 1 3 4
M  V30 4 2 4 5
M  V30 5 1 5 6
M  V30 6 2 6 7
M  V30 7 1 6 8
M  V30 8 1 8 9
M  V30 9 2 9 10
M  V30 10 1 9 11
M  V30 11 1 11 12
M  V30 12 2 12 13
M  V30 13 1 13 14
M  V30 14 2 14 15
M  V30 15 1 15 16
M  V30 16 2 16 17
M  V30 17 1 16 18
M  V30 18 1 11 19
M  V30 19 2 19 20
M  V30 20 1 19 21
M  V30 21 1 8 22
M  V30 22 2 22 23
M  V30 23 1 22 24
M  V30 24 1 7 2
M  V30 25 1 17 12
M  V30 26 1 1 25
M  V30 27 1 1 26
M  V30 28 1 3 27
M  V30 29 1 4 28
M  V30 30 1 5 29
M  V30 31 1 7 30
M  V30 32 1 13 31
M  V30 33 1 14 32
M  V30 34 1 15 33
M  V30 35 1 17 34
M  V30 36 1 18 35
M  V30 37 1 18 36
M  V30 38 1 21 37
M  V30 39 1 21 38
M  V30 40 1 21 39
M  V30 41 1 24 40
M  V30 42 1 24 41
M  V30 43 1 24 42
M  V30 END BOND
M  V30 END CTAB
M  END
