
     RDKit          3D

  0  0  0  0  0  0  0  0  0  0999 V3000
M  V30 BEGIN CTAB
M  V30 COUNTS 22 22 0 0 0
M  V30 BEGIN ATOM
M  V30 1 O -3.47659 0.348874 -0.694387 0
M  V30 2 C -2.66612 -0.77668 -0.788838 0
M  V30 3 O -3.11398 -1.88576 -1.15517 0
M  V30 4 C -1.25255 -0.641152 -0.446186 0
M  V30 5 C -0.410971 -1.73848 -0.527008 0
M  V30 6 C 0.915307 -1.59216 -0.200902 0
M  V30 7 C 1.45203 -0.388421 0.207782 0
M  V30 8 C 0.611269 0.716132 0.290527 0
M  V30 9 C -0.723465 0.566858 -0.0381449 0
M  V30 10 N -1.54605 1.72864 0.0624544 0
M  V30 11 N 1.16884 1.95542 0.712366 0
M  V30 12 C 2.85556 -0.240034 0.551339 0
M  V30 13 O 3.30276 0.865103 0.916579 0
M  V30 14 O 3.66254 -1.36031 0.457378 0
M  V30 15 H -4.15455 0.477579 0.0474486 0
M  V30 16 H -0.81171 -2.70421 -0.848351 0
M  V30 17 H 1.56907 -2.46786 -0.269319 0
M  V30 18 H -2.24286 1.86569 0.807294 0
M  V30 19 H -1.44467 2.48468 -0.650117 0
M  V30 20 H 1.64887 2.62634 0.0911336 0
M  V30 21 H 1.07821 2.19592 1.74225 0
M  V30 22 H 3.57907 -2.03617 -0.268136 0
M  V30 END ATOM
M  V30 BEGIN BOND
M  V30 1 1 1 2
M  V30 2 2 2 3
M  V30 3 1 2 4
M  V30 4 2 4 5
M  V30 5 1 5 6
M  V30 6 2 6 7
M  V30 7 1 7 8
M  V30 8 2 8 9
M  V30 9 1 9 10
M  V30 10 1 8 11
M  V30 11 1 7 12
M  V30 12 2 12 13
M  V30 13 1 12 14
M  V30 14 1 9 4
M  V30 15 1 1 15
M  V30 16 1 5 16
M  V30 17 1 6 17
M  V30 18 1 10 18
M  V30 19 1 10 19
M  V30 20 1 11 20
M  V30 21 1 11 21
M  V30 22 1 14 22
M  V30 END BOND
M  V30 END CTAB
M  END
