
     RDKit          3D

  0  0  0  0  0  0  0  0  0  0999 V3000
M  V30 BEGIN CTAB
M  V30 COUNTS 28 28 0 0 0
M  V30 BEGIN ATOM
M  V30 1 C 3.36919 0.185165 -1.24263 0
M  V30 2 C 2.30335 -0.71761 -0.629371 0 CFG=2
M  V30 3 C 1.05741 0.107237 -0.48294 0
M  V30 4 C -0.0947091 -0.650834 0.113856 0
M  V30 5 C -1.2722 0.248195 0.214219 0
M  V30 6 C -1.27844 1.56389 -0.21044 0
M  V30 7 C -2.40326 2.34692 -0.0910726 0
M  V30 8 C -3.55839 1.84363 0.455531 0
M  V30 9 N -3.54591 0.562295 0.866934 0
M  V30 10 C -2.45657 -0.219303 0.758893 0
M  V30 11 N -2.45876 -1.58347 1.20204 0
M  V30 12 O -0.380163 -1.819 -0.567295 0
M  V30 13 N 2.77855 -1.07213 0.692077 0
M  V30 14 H 3.12779 0.311959 -2.31604 0
M  V30 15 H 3.30964 1.17678 -0.749727 0
M  V30 16 H 4.38561 -0.204259 -1.06814 0
M  V30 17 H 2.18853 -1.5856 -1.27544 0
M  V30 18 H 0.758805 0.446966 -1.48833 0
M  V30 19 H 1.26814 0.988004 0.14967 0
M  V30 20 H 0.241226 -0.954249 1.14947 0
M  V30 21 H -0.347256 1.93287 -0.639793 0
M  V30 22 H -2.37423 3.36749 -0.431676 0
M  V30 23 H -4.46831 2.45867 0.558026 0
M  V30 24 H -3.24033 -2.17591 0.842202 0
M  V30 25 H -1.75871 -1.98919 1.82959 0
M  V30 26 H -0.243111 -2.62577 -0.0127995 0
M  V30 27 H 2.12623 -1.73346 1.12655 0
M  V30 28 H 2.96591 -0.209284 1.24664 0
M  V30 END ATOM
M  V30 BEGIN BOND
M  V30 1 1 1 2
M  V30 2 1 2 3
M  V30 3 1 3 4
M  V30 4 1 4 5
M  V30 5 2 5 6
M  V30 6 1 6 7
M  V30 7 2 7 8
M  V30 8 1 8 9
M  V30 9 2 9 10
M  V30 10 1 10 11
M  V30 11 1 4 12
M  V30 12 1 2 13
M  V30 13 1 10 5
M  V30 14 1 1 14
M  V30 15 1 1 15
M  V30 16 1 1 16
M  V30 17 1 2 17 CFG=3
M  V30 18 1 3 18
M  V30 19 1 3 19
M  V30 20 1 4 20
M  V30 21 1 6 21
M  V30 22 1 7 22
M  V30 23 1 8 23
M  V30 24 1 11 24
M  V30 25 1 11 25
M  V30 26 1 12 26
M  V30 27 1 13 27
M  V30 28 1 13 28
M  V30 END BOND
M  V30 END CTAB
M  END
