
     RDKit          3D

  0  0  0  0  0  0  0  0  0  0999 V3000
M  V30 BEGIN CTAB
M  V30 COUNTS 27 26 0 0 0
M  V30 BEGIN ATOM
M  V30 1 C 2.55962 -0.19218 -0.600138 0 CFG=1
M  V30 2 N 2.74937 -1.50518 -0.0302928 0
M  V30 3 C 1.306 0.403151 -0.0483569 0
M  V30 4 C 0.139475 -0.49165 -0.41066 0
M  V30 5 C -1.14677 0.104049 0.146315 0
M  V30 6 C -2.26855 -0.821274 -0.241272 0
M  V30 7 C -3.60776 -0.328273 0.261674 0
M  V30 8 N -3.92201 0.965605 -0.271241 0
M  V30 9 C 3.69591 0.645422 -0.241499 0
M  V30 10 O 3.7217 1.9568 -0.686929 0
M  V30 11 O 4.65772 0.236939 0.454262 0
M  V30 12 H 2.45182 -0.303183 -1.68125 0
M  V30 13 H 2.83714 -1.39344 1.01591 0
M  V30 14 H 3.6537 -1.87474 -0.416934 0
M  V30 15 H 1.17244 1.4079 -0.45838 0
M  V30 16 H 1.40541 0.42559 1.04758 0
M  V30 17 H 0.0699043 -0.511524 -1.50691 0
M  V30 18 H 0.26068 -1.49827 0.0200951 0
M  V30 19 H -1.08056 0.243679 1.22936 0
M  V30 20 H -1.33664 1.08592 -0.330398 0
M  V30 21 H -2.30136 -0.914116 -1.32746 0
M  V30 22 H -2.06985 -1.80405 0.225583 0
M  V30 23 H -3.62889 -0.353439 1.36967 0
M  V30 24 H -4.36831 -1.05482 -0.10773 0
M  V30 25 H -4.92149 1.17419 -0.00443611 0
M  V30 26 H -3.35051 1.71005 0.156854 0
M  V30 27 H 3.3218 2.68684 -0.0848113 0
M  V30 END ATOM
M  V30 BEGIN BOND
M  V30 1 1 1 2
M  V30 2 1 1 3
M  V30 3 1 3 4
M  V30 4 1 4 5
M  V30 5 1 5 6
M  V30 6 1 6 7
M  V30 7 1 7 8
M  V30 8 1 1 9
M  V30 9 1 9 10
M  V30 10 2 9 11
M  V30 11 1 1 12 CFG=3
M  V30 12 1 2 13
M  V30 13 1 2 14
M  V30 14 1 3 15
M  V30 15 1 3 16
M  V30 16 1 4 17
M  V30 17 1 4 18
M  V30 18 1 5 19
M  V30 19 1 5 20
M  V30 20 1 6 21
M  V30 21 1 6 22
M  V30 22 1 7 23
M  V30 23 1 7 24
M  V30 24 1 8 25
M  V30 25 1 8 26
M  V30 26 1 10 27
M  V30 END BOND
M  V30 END CTAB
M  END
