
     RDKit          3D

  0  0  0  0  0  0  0  0  0  0999 V3000
M  V30 BEGIN CTAB
M  V30 COUNTS 39 41 0 0 0
M  V30 BEGIN ATOM
M  V30 1 N -3.57119 3.98158 -0.882164 0
M  V30 2 C -3.23511 3.47509 0.435054 0
M  V30 3 C -2.37558 2.26091 0.305055 0
M  V30 4 N -1.07841 2.26495 0.253642 0
M  V30 5 N -0.590401 1.00055 0.133981 0
M  V30 6 C -1.62693 0.171753 0.110827 0
M  V30 7 C -2.78623 0.957468 0.218665 0
M  V30 8 C -1.68982 -1.28158 -0.0410377 0
M  V30 9 C -2.9337 -1.85552 -0.278832 0
M  V30 10 C -3.1469 -3.19906 -0.411143 0
M  V30 11 C -2.05107 -4.02591 -0.299595 0
M  V30 12 C -0.811299 -3.50115 -0.0656117 0
M  V30 13 C -0.627768 -2.12679 0.0647511 0
M  V30 14 C 0.80807 0.749764 0.028365 0
M  V30 15 C 1.60242 0.743218 1.15091 0
M  V30 16 C 2.95945 0.547327 0.997667 0
M  V30 17 C 3.55487 0.357983 -0.228852 0
M  V30 18 C 2.75668 0.364822 -1.35389 0
M  V30 19 C 1.38619 0.562121 -1.2051 0
M  V30 20 S 5.28572 0.109177 -0.412443 0
M  V30 21 N 5.5949 -1.58639 -0.323829 0
M  V30 22 O 5.96091 0.765544 0.743417 0
M  V30 23 O 5.75006 0.673072 -1.72509 0
M  V30 24 H -3.90351 4.95387 -0.846866 0
M  V30 25 H -4.17426 3.32269 -1.39677 0
M  V30 26 H -4.21263 3.19176 0.92109 0
M  V30 27 H -2.69323 4.21841 1.01898 0
M  V30 28 H -3.82513 0.61755 0.236716 0
M  V30 29 H -3.84273 -1.23914 -0.381696 0
M  V30 30 H -4.11812 -3.63301 -0.597057 0
M  V30 31 H -2.19566 -5.10164 -0.401762 0
M  V30 32 H 0.0593262 -4.17737 0.0215752 0
M  V30 33 H 0.368865 -1.80501 0.265743 0
M  V30 34 H 1.21678 0.884291 2.15193 0
M  V30 35 H 3.63462 0.533427 1.85845 0
M  V30 36 H 3.22069 0.216463 -2.31868 0
M  V30 37 H 0.812656 0.557756 -2.11752 0
M  V30 38 H 5.80118 -1.84896 0.66018 0
M  V30 39 H 4.71629 -2.10003 -0.58737 0
M  V30 END ATOM
M  V30 BEGIN BOND
M  V30 1 1 1 2
M  V30 2 1 2 3
M  V30 3 2 3 4
M  V30 4 1 4 5
M  V30 5 1 5 6
M  V30 6 2 6 7
M  V30 7 1 6 8
M  V30 8 2 8 9
M  V30 9 1 9 10
M  V30 10 2 10 11
M  V30 11 1 11 12
M  V30 12 2 12 13
M  V30 13 1 5 14
M  V30 14 2 14 15
M  V30 15 1 15 16
M  V30 16 2 16 17
M  V30 17 1 17 18
M  V30 18 2 18 19
M  V30 19 1 17 20
M  V30 20 1 20 21
M  V30 21 2 20 22
M  V30 22 2 20 23
M  V30 23 1 7 3
M  V30 24 1 13 8
M  V30 25 1 19 14
M  V30 26 1 1 24
M  V30 27 1 1 25
M  V30 28 1 2 26
M  V30 29 1 2 27
M  V30 30 1 7 28
M  V30 31 1 9 29
M  V30 32 1 10 30
M  V30 33 1 11 31
M  V30 34 1 12 32
M  V30 35 1 13 33
M  V30 36 1 15 34
M  V30 37 1 16 35
M  V30 38 1 18 36
M  V30 39 1 19 37
M  V30 40 1 21 38
M  V30 41 1 21 39
M  V30 END BOND
M  V30 END CTAB
M  END
