
     RDKit          3D

  0  0  0  0  0  0  0  0  0  0999 V3000
M  V30 BEGIN CTAB
M  V30 COUNTS 23 23 0 0 0
M  V30 BEGIN ATOM
M  V30 1 N 3.18056 -0.472511 -0.918619 0
M  V30 2 N 1.97992 0.24174 -0.869605 0
M  V30 3 C 0.957332 -0.0756372 0.0622557 0
M  V30 4 O 1.15363 -1.02374 0.853597 0
M  V30 5 C -0.320287 0.66847 0.129751 0
M  V30 6 C -1.52059 -0.228421 -0.0890373 0
M  V30 7 C -1.79838 -1.36823 0.806168 0
M  V30 8 C -1.3922 -1.56957 -0.663199 0
M  V30 9 N -0.326944 1.71988 -0.877748 0
M  V30 10 C -0.432001 1.40485 1.47147 0
M  V30 11 H 3.04229 -1.4835 -1.09951 0
M  V30 12 H 3.79103 -0.290959 -0.087124 0
M  V30 13 H 1.86828 1.02341 -1.5528 0
M  V30 14 H -2.43476 0.338158 -0.420797 0
M  V30 15 H -2.85653 -1.66071 1.02266 0
M  V30 16 H -1.10277 -1.70479 1.58545 0
M  V30 17 H -2.19134 -1.96752 -1.35339 0
M  V30 18 H -0.441128 -2.1054 -0.779099 0
M  V30 19 H 0.373604 2.45385 -0.679297 0
M  V30 20 H -0.133727 1.31228 -1.8166 0
M  V30 21 H -1.51692 1.53833 1.64557 0
M  V30 22 H 0.0365862 2.41962 1.38139 0
M  V30 23 H 0.0843325 0.830366 2.24851 0
M  V30 END ATOM
M  V30 BEGIN BOND
M  V30 1 1 1 2
M  V30 2 1 2 3
M  V30 3 2 3 4
M  V30 4 1 3 5
M  V30 5 1 5 6
M  V30 6 1 6 7
M  V30 7 1 7 8
M  V30 8 1 5 9
M  V30 9 1 5 10
M  V30 10 1 8 6
M  V30 11 1 1 11
M  V30 12 1 1 12
M  V30 13 1 2 13
M  V30 14 1 6 14
M  V30 15 1 7 15
M  V30 16 1 7 16
M  V30 17 1 8 17
M  V30 18 1 8 18
M  V30 19 1 9 19
M  V30 20 1 9 20
M  V30 21 1 10 21
M  V30 22 1 10 22
M  V30 23 1 10 23
M  V30 END BOND
M  V30 END CTAB
M  END
