
     RDKit          3D

  0  0  0  0  0  0  0  0  0  0999 V3000
M  V30 BEGIN CTAB
M  V30 COUNTS 33 35 0 0 0
M  V30 BEGIN ATOM
M  V30 1 N 4.59922 -1.0121 -1.8575 0
M  V30 2 C 3.87863 -0.517274 -0.74286 0
M  V30 3 C 4.56076 -0.285203 0.448111 0
M  V30 4 C 3.83419 0.194594 1.51065 0
M  V30 5 C 2.46465 0.441713 1.40592 0
M  V30 6 C 1.83877 0.201852 0.226956 0
M  V30 7 N 2.56141 -0.269155 -0.810038 0
M  V30 8 C 0.403345 0.449441 0.0845945 0
M  V30 9 C -0.179252 0.204424 -1.10154 0
M  V30 10 C -1.63334 0.447464 -1.27168 0
M  V30 11 C -2.35045 -0.14251 -0.106145 0
M  V30 12 C -1.79482 0.21982 1.23055 0
M  V30 13 C -0.454341 0.949977 1.15431 0
M  V30 14 C -2.99579 -1.47726 -0.32008 0
M  V30 15 C -3.8499 -0.30068 -0.1445 0
M  V30 16 N -4.47562 0.343048 -1.30078 0
M  V30 17 H 4.74437 -2.01956 -1.97159 0
M  V30 18 H 4.97709 -0.349054 -2.55422 0
M  V30 19 H 5.62141 -0.493738 0.474219 0
M  V30 20 H 4.33908 0.384519 2.45038 0
M  V30 21 H 1.94266 0.824216 2.28746 0
M  V30 22 H 0.447203 -0.167673 -1.9013 0
M  V30 23 H -1.98355 -0.0390815 -2.19048 0
M  V30 24 H -1.86105 1.53588 -1.38641 0
M  V30 25 H -1.75389 -0.617444 1.9521 0
M  V30 26 H -2.501 0.968811 1.68763 0
M  V30 27 H -0.0568193 0.923355 2.16516 0
M  V30 28 H -0.667406 2.03256 0.907723 0
M  V30 29 H -2.91948 -2.16886 0.567031 0
M  V30 30 H -2.86053 -1.9656 -1.30236 0
M  V30 31 H -4.42686 -0.157674 0.794798 0
M  V30 32 H -3.97807 1.26599 -1.4189 0
M  V30 33 H -5.47061 0.5952 -1.10622 0
M  V30 END ATOM
M  V30 BEGIN BOND
M  V30 1 1 1 2
M  V30 2 2 2 3
M  V30 3 1 3 4
M  V30 4 2 4 5
M  V30 5 1 5 6
M  V30 6 2 6 7
M  V30 7 1 6 8
M  V30 8 2 8 9
M  V30 9 1 9 10
M  V30 10 1 10 11
M  V30 11 1 11 12
M  V30 12 1 12 13
M  V30 13 1 11 14
M  V30 14 1 14 15
M  V30 15 1 15 16
M  V30 16 1 7 2
M  V30 17 1 13 8
M  V30 18 1 15 11
M  V30 19 1 1 17
M  V30 20 1 1 18
M  V30 21 1 3 19
M  V30 22 1 4 20
M  V30 23 1 5 21
M  V30 24 1 9 22
M  V30 25 1 10 23
M  V30 26 1 10 24
M  V30 27 1 12 25
M  V30 28 1 12 26
M  V30 29 1 13 27
M  V30 30 1 13 28
M  V30 31 1 14 29
M  V30 32 1 14 30
M  V30 33 1 15 31
M  V30 34 1 16 32
M  V30 35 1 16 33
M  V30 END BOND
M  V30 END CTAB
M  END
