
     RDKit          3D

  0  0  0  0  0  0  0  0  0  0999 V3000
M  V30 BEGIN CTAB
M  V30 COUNTS 35 36 0 0 0
M  V30 BEGIN ATOM
M  V30 1 N 1.0035 -2.22358 0.0236689 0
M  V30 2 C 1.38488 -0.866019 -0.0064901 0
M  V30 3 N 0.449645 0.00893338 -0.167945 0
M  V30 4 N -0.886487 -0.359123 -0.308006 0
M  V30 5 C -1.90943 0.575165 -0.0300116 0
M  V30 6 O -1.62817 1.76556 0.352021 0
M  V30 7 C -3.32295 0.239156 -0.161282 0
M  V30 8 C -3.73449 -1.01075 -0.564461 0
M  V30 9 C -5.07914 -1.33802 -0.691755 0
M  V30 10 C -6.01581 -0.369573 -0.401425 0
M  V30 11 C -5.59833 0.878145 0.00116352 0
M  V30 12 C -4.27285 1.20984 0.129526 0
M  V30 13 N -3.87817 2.52048 0.551663 0
M  V30 14 C 2.7787 -0.434905 0.136966 0
M  V30 15 C 3.07672 0.910145 0.0974534 0
M  V30 16 C 4.3747 1.35266 0.228744 0
M  V30 17 C 5.3733 0.433159 0.40033 0
M  V30 18 C 5.09057 -0.906318 0.441366 0
M  V30 19 C 3.78154 -1.35696 0.309204 0
M  V30 20 N 6.70936 0.901553 0.534742 0 CHG=1
M  V30 21 O 6.99472 2.09791 0.502042 0
M  V30 22 O 7.73933 -0.0103922 0.709668 0 CHG=-1
M  V30 23 H 1.6093 -2.92535 -0.44581 0
M  V30 24 H 0.142859 -2.57346 0.491993 0
M  V30 25 H -1.10917 -1.31571 -0.614941 0
M  V30 26 H -3.02927 -1.80598 -0.803981 0
M  V30 27 H -5.39952 -2.33708 -1.01387 0
M  V30 28 H -7.07544 -0.636017 -0.504439 0
M  V30 29 H -6.36558 1.62946 0.225695 0
M  V30 30 H -3.74447 3.31064 -0.0855111 0
M  V30 31 H -3.72361 2.65565 1.5692 0
M  V30 32 H 2.29019 1.64096 -0.0380478 0
M  V30 33 H 4.57132 2.40646 0.193369 0
M  V30 34 H 5.8673 -1.6513 0.576499 0
M  V30 35 H 3.53494 -2.41536 0.338848 0
M  V30 END ATOM
M  V30 BEGIN BOND
M  V30 1 1 1 2
M  V30 2 2 2 3
M  V30 3 1 3 4
M  V30 4 1 4 5
M  V30 5 2 5 6
M  V30 6 1 5 7
M  V30 7 2 7 8
M  V30 8 1 8 9
M  V30 9 2 9 10
M  V30 10 1 10 11
M  V30 11 2 11 12
M  V30 12 1 12 13
M  V30 13 1 2 14
M  V30 14 2 14 15
M  V30 15 1 15 16
M  V30 16 2 16 17
M  V30 17 1 17 18
M  V30 18 2 18 19
M  V30 19 1 17 20
M  V30 20 2 20 21
M  V30 21 1 20 22
M  V30 22 1 12 7
M  V30 23 1 19 14
M  V30 24 1 1 23
M  V30 25 1 1 24
M  V30 26 1 4 25
M  V30 27 1 8 26
M  V30 28 1 9 27
M  V30 29 1 10 28
M  V30 30 1 11 29
M  V30 31 1 13 30
M  V30 32 1 13 31
M  V30 33 1 15 32
M  V30 34 1 16 33
M  V30 35 1 18 34
M  V30 36 1 19 35
M  V30 END BOND
M  V30 END CTAB
M  END
