
     RDKit          3D

  0  0  0  0  0  0  0  0  0  0999 V3000
M  V30 BEGIN CTAB
M  V30 COUNTS 39 41 0 0 0
M  V30 BEGIN ATOM
M  V30 1 N 6.27842 -3.06068 0.607273 0
M  V30 2 N 5.3756 -2.2085 -0.0171572 0
M  V30 3 C 4.0816 -1.96867 0.505803 0
M  V30 4 O 3.75149 -2.56082 1.583 0
M  V30 5 C 3.1183 -1.08845 -0.118652 0
M  V30 6 C 3.41034 -0.406783 -1.27652 0
M  V30 7 C 2.50132 0.43962 -1.88939 0
M  V30 8 C 1.24834 0.617434 -1.32936 0
M  V30 9 C 0.94055 -0.0461165 -0.18699 0
M  V30 10 C 1.86484 -0.897047 0.422405 0
M  V30 11 N -0.265923 0.118524 0.36198 0
M  V30 12 C -1.22909 0.93722 -0.176622 0
M  V30 13 N -0.906493 1.56799 -1.28457 0
M  V30 14 C 0.315201 1.43314 -1.8845 0
M  V30 15 O 0.590052 2.05929 -2.95299 0
M  V30 16 N -1.80024 2.39305 -1.94041 0
M  V30 17 C -2.48843 0.993282 0.508106 0
M  V30 18 C -3.43312 2.00118 0.416276 0
M  V30 19 C -4.65125 1.97958 1.09583 0
M  V30 20 Br -5.87003 3.44151 0.878102 0
M  V30 21 C -4.962 0.917873 1.90851 0
M  V30 22 C -4.05709 -0.105924 2.03179 0
M  V30 23 C -2.84703 -0.0581682 1.33878 0
M  V30 24 O -1.9829 -1.12106 1.49641 0
M  V30 25 C -2.22227 -2.22641 0.593051 0
M  V30 26 Br -4.45103 -1.60566 3.16044 0
M  V30 27 H 6.94722 -2.57414 1.22109 0
M  V30 28 H 6.76452 -3.70508 -0.0560597 0
M  V30 29 H 5.69203 -1.74834 -0.894692 0
M  V30 30 H 4.36235 -0.495689 -1.76763 0
M  V30 31 H 2.72721 0.973149 -2.79375 0
M  V30 32 H 1.63052 -1.43458 1.33805 0
M  V30 33 H -1.68962 3.40292 -2.09677 0
M  V30 34 H -2.6762 1.95018 -2.31597 0
M  V30 35 H -3.252 2.87136 -0.17827 0
M  V30 36 H -5.87903 0.861249 2.4455 0
M  V30 37 H -2.53325 -1.88648 -0.393495 0
M  V30 38 H -1.34361 -2.90668 0.59487 0
M  V30 39 H -3.05931 -2.7942 1.04652 0
M  V30 END ATOM
M  V30 BEGIN BOND
M  V30 1 1 1 2
M  V30 2 1 2 3
M  V30 3 2 3 4
M  V30 4 1 3 5
M  V30 5 2 5 6
M  V30 6 1 6 7
M  V30 7 2 7 8
M  V30 8 1 8 9
M  V30 9 2 9 10
M  V30 10 1 9 11
M  V30 11 2 11 12
M  V30 12 1 12 13
M  V30 13 1 13 14
M  V30 14 2 14 15
M  V30 15 1 13 16
M  V30 16 1 12 17
M  V30 17 2 17 18
M  V30 18 1 18 19
M  V30 19 1 19 20
M  V30 20 2 19 21
M  V30 21 1 21 22
M  V30 22 2 22 23
M  V30 23 1 23 24
M  V30 24 1 24 25
M  V30 25 1 22 26
M  V30 26 1 10 5
M  V30 27 1 23 17
M  V30 28 1 14 8
M  V30 29 1 1 27
M  V30 30 1 1 28
M  V30 31 1 2 29
M  V30 32 1 6 30
M  V30 33 1 7 31
M  V30 34 1 10 32
M  V30 35 1 16 33
M  V30 36 1 16 34
M  V30 37 1 18 35
M  V30 38 1 21 36
M  V30 39 1 25 37
M  V30 40 1 25 38
M  V30 41 1 25 39
M  V30 END BOND
M  V30 END CTAB
M  END
