
     RDKit          3D

  0  0  0  0  0  0  0  0  0  0999 V3000
M  V30 BEGIN CTAB
M  V30 COUNTS 39 40 0 0 0
M  V30 BEGIN ATOM
M  V30 1 N -3.97121 -0.941099 0.471795 0
M  V30 2 C -3.40667 -0.378145 -0.715748 0
M  V30 3 C -3.70089 1.08512 -0.876601 0
M  V30 4 C -3.04568 1.93716 0.168744 0
M  V30 5 C -2.06595 1.1883 1.02312 0
M  V30 6 N -1.26572 0.238106 0.279764 0
M  V30 7 C -1.87961 -0.531781 -0.757304 0
M  V30 8 C 0.0961975 0.0664578 0.605645 0
M  V30 9 O 0.479216 0.789862 1.60638 0
M  V30 10 C 1.08657 -0.789314 -0.0151776 0
M  V30 11 C 2.44926 -0.184426 0.0119561 0
M  V30 12 C 3.16446 -0.0515879 -1.16748 0
M  V30 13 C 4.42846 0.460766 -1.21651 0
M  V30 14 C 5.02134 0.863932 -0.0434195 0
M  V30 15 C 4.34272 0.746918 1.14875 0
M  V30 16 C 3.04549 0.218611 1.18493 0
M  V30 17 Br 6.78966 1.57849 -0.135353 0
M  V30 18 N 0.747006 -1.14407 -1.35559 0
M  V30 19 C 1.25719 -2.10879 0.762374 0
M  V30 20 H -4.82465 -0.398446 0.716755 0
M  V30 21 H -4.15316 -1.94937 0.323133 0
M  V30 22 H -3.78872 -0.898183 -1.61191 0
M  V30 23 H -3.34235 1.37665 -1.90038 0
M  V30 24 H -4.80404 1.21379 -0.911997 0
M  V30 25 H -3.85639 2.30089 0.847052 0
M  V30 26 H -2.49377 2.78872 -0.302597 0
M  V30 27 H -1.41122 1.97349 1.50642 0
M  V30 28 H -2.56551 0.694016 1.90692 0
M  V30 29 H -1.62995 -1.62734 -0.712514 0
M  V30 30 H -1.60195 -0.188483 -1.77123 0
M  V30 31 H 2.67848 -0.381898 -2.08309 0
M  V30 32 H 4.96138 0.551235 -2.15926 0
M  V30 33 H 4.84057 1.07404 2.05045 0
M  V30 34 H 2.56869 0.126685 2.16752 0
M  V30 35 H 0.707602 -0.380363 -2.03843 0
M  V30 36 H 1.18137 -2.02107 -1.67635 0
M  V30 37 H 0.491793 -2.80789 0.367819 0
M  V30 38 H 1.22236 -1.95402 1.83971 0
M  V30 39 H 2.24765 -2.53696 0.499065 0
M  V30 END ATOM
M  V30 BEGIN BOND
M  V30 1 1 1 2
M  V30 2 1 2 3
M  V30 3 1 3 4
M  V30 4 1 4 5
M  V30 5 1 5 6
M  V30 6 1 6 7
M  V30 7 1 6 8
M  V30 8 2 8 9
M  V30 9 1 8 10
M  V30 10 1 10 11
M  V30 11 2 11 12
M  V30 12 1 12 13
M  V30 13 2 13 14
M  V30 14 1 14 15
M  V30 15 2 15 16
M  V30 16 1 14 17
M  V30 17 1 10 18
M  V30 18 1 10 19
M  V30 19 1 7 2
M  V30 20 1 16 11
M  V30 21 1 1 20
M  V30 22 1 1 21
M  V30 23 1 2 22
M  V30 24 1 3 23
M  V30 25 1 3 24
M  V30 26 1 4 25
M  V30 27 1 4 26
M  V30 28 1 5 27
M  V30 29 1 5 28
M  V30 30 1 7 29
M  V30 31 1 7 30
M  V30 32 1 12 31
M  V30 33 1 13 32
M  V30 34 1 15 33
M  V30 35 1 16 34
M  V30 36 1 18 35
M  V30 37 1 18 36
M  V30 38 1 19 37
M  V30 39 1 19 38
M  V30 40 1 19 39
M  V30 END BOND
M  V30 END CTAB
M  END
