
     RDKit          3D

  0  0  0  0  0  0  0  0  0  0999 V3000
M  V30 BEGIN CTAB
M  V30 COUNTS 26 27 0 0 0
M  V30 BEGIN ATOM
M  V30 1 N -0.968399 0.370478 2.24202 0
M  V30 2 C -1.56464 0.169127 0.949233 0
M  V30 3 C -0.717 -0.0864125 -0.116771 0
M  V30 4 C -1.32712 -0.254722 -1.36845 0
M  V30 5 C -2.68464 -0.178098 -1.54811 0
M  V30 6 C -3.52206 0.0750911 -0.476642 0
M  V30 7 Br -5.41897 0.173468 -0.690546 0
M  V30 8 C -2.92996 0.244722 0.760683 0
M  V30 9 C 0.717505 -0.240947 0.0484869 0
M  V30 10 C 1.58675 0.506584 -0.71608 0
M  V30 11 N 1.00259 1.4722 -1.5991 0
M  V30 12 C 2.9623 0.351903 -0.631538 0
M  V30 13 C 3.48729 -0.58828 0.25418 0
M  V30 14 Br 5.39346 -0.768933 0.335926 0
M  V30 15 C 2.6388 -1.34624 1.02922 0
M  V30 16 C 1.28249 -1.17245 0.924973 0
M  V30 17 H -0.999894 -0.430123 2.90328 0
M  V30 18 H -0.523512 1.24608 2.52434 0
M  V30 19 H -0.639947 -0.4547 -2.19672 0
M  V30 20 H -3.1206 -0.314178 -2.5289 0
M  V30 21 H -3.57654 0.448924 1.62945 0
M  V30 22 H 0.678315 2.35377 -1.10791 0
M  V30 23 H 0.917979 1.30923 -2.60499 0
M  V30 24 H 3.61987 0.964614 -1.25834 0
M  V30 25 H 3.06993 -2.08222 1.70954 0
M  V30 26 H 0.636009 -1.76889 1.53276 0
M  V30 END ATOM
M  V30 BEGIN BOND
M  V30 1 1 1 2
M  V30 2 2 2 3
M  V30 3 1 3 4
M  V30 4 2 4 5
M  V30 5 1 5 6
M  V30 6 1 6 7
M  V30 7 2 6 8
M  V30 8 1 3 9
M  V30 9 2 9 10
M  V30 10 1 10 11
M  V30 11 1 10 12
M  V30 12 2 12 13
M  V30 13 1 13 14
M  V30 14 1 13 15
M  V30 15 2 15 16
M  V30 16 1 8 2
M  V30 17 1 16 9
M  V30 18 1 1 17
M  V30 19 1 1 18
M  V30 20 1 4 19
M  V30 21 1 5 20
M  V30 22 1 8 21
M  V30 23 1 11 22
M  V30 24 1 11 23
M  V30 25 1 12 24
M  V30 26 1 15 25
M  V30 27 1 16 26
M  V30 END BOND
M  V30 END CTAB
M  END
