
     RDKit          3D

  0  0  0  0  0  0  0  0  0  0999 V3000
M  V30 BEGIN CTAB
M  V30 COUNTS 38 38 0 0 0
M  V30 BEGIN ATOM
M  V30 1 N 5.96956 1.398 0.200639 0
M  V30 2 C 5.59925 0.522076 -0.8639 0
M  V30 3 C 4.12135 0.244419 -0.932064 0
M  V30 4 C 3.6006 -0.399352 0.324413 0
M  V30 5 N 2.20045 -0.687949 0.317299 0
M  V30 6 C 1.18622 0.284967 0.174132 0
M  V30 7 O 1.51281 1.48137 0.045499 0
M  V30 8 C -0.219212 -0.0539342 0.171005 0
M  V30 9 C -0.694621 -1.33536 0.305743 0
M  V30 10 C -2.06923 -1.59203 0.293974 0
M  V30 11 C -2.55874 -2.99109 0.44201 0
M  V30 12 C -2.9707 -0.559257 0.146462 0
M  V30 13 C -2.51474 0.728331 0.0102953 0
M  V30 14 C -1.16341 0.96876 0.0233112 0
M  V30 15 S -3.68179 2.01114 -0.178844 0
M  V30 16 O -2.90784 3.32434 -0.163551 0
M  V30 17 O -4.39301 1.9735 -1.49319 0
M  V30 18 N -4.76225 2.09956 1.16482 0
M  V30 19 C -4.40178 -0.843511 0.139431 0
M  V30 20 H 6.1389 0.936643 1.10254 0
M  V30 21 H 5.1889 2.07728 0.346317 0
M  V30 22 H 5.90796 0.921641 -1.84844 0
M  V30 23 H 6.11173 -0.461781 -0.692094 0
M  V30 24 H 3.5573 1.1426 -1.24686 0
M  V30 25 H 3.98794 -0.48757 -1.78309 0
M  V30 26 H 4.19956 -1.30553 0.526793 0
M  V30 27 H 3.80819 0.280128 1.2014 0
M  V30 28 H 1.9481 -1.71783 0.429822 0
M  V30 29 H 0.00845686 -2.14337 0.421084 0
M  V30 30 H -2.72142 -3.39497 -0.575696 0
M  V30 31 H -1.86998 -3.62132 1.03855 0
M  V30 32 H -3.57018 -2.9902 0.931702 0
M  V30 33 H -0.789532 1.99555 -0.0848688 0
M  V30 34 H -5.12467 3.07537 1.2044 0
M  V30 35 H -4.17773 1.96131 2.02243 0
M  V30 36 H -4.7556 -0.97792 1.20453 0
M  V30 37 H -4.65342 -1.82288 -0.345579 0
M  V30 38 H -5.0474 -0.0411405 -0.266327 0
M  V30 END ATOM
M  V30 BEGIN BOND
M  V30 1 1 1 2
M  V30 2 1 2 3
M  V30 3 1 3 4
M  V30 4 1 4 5
M  V30 5 1 5 6
M  V30 6 2 6 7
M  V30 7 1 6 8
M  V30 8 2 8 9
M  V30 9 1 9 10
M  V30 10 1 10 11
M  V30 11 2 10 12
M  V30 12 1 12 13
M  V30 13 2 13 14
M  V30 14 1 13 15
M  V30 15 2 15 16
M  V30 16 2 15 17
M  V30 17 1 15 18
M  V30 18 1 12 19
M  V30 19 1 14 8
M  V30 20 1 1 20
M  V30 21 1 1 21
M  V30 22 1 2 22
M  V30 23 1 2 23
M  V30 24 1 3 24
M  V30 25 1 3 25
M  V30 26 1 4 26
M  V30 27 1 4 27
M  V30 28 1 5 28
M  V30 29 1 9 29
M  V30 30 1 11 30
M  V30 31 1 11 31
M  V30 32 1 11 32
M  V30 33 1 14 33
M  V30 34 1 18 34
M  V30 35 1 18 35
M  V30 36 1 19 36
M  V30 37 1 19 37
M  V30 38 1 19 38
M  V30 END BOND
M  V30 END CTAB
M  END
