
     RDKit          3D

  0  0  0  0  0  0  0  0  0  0999 V3000
M  V30 BEGIN CTAB
M  V30 COUNTS 47 50 0 0 0
M  V30 BEGIN ATOM
M  V30 1 N -4.77291 0.282809 -2.86646 0
M  V30 2 C -5.03834 0.284175 -1.47239 0
M  V30 3 N -4.07324 0.235552 -0.542652 0
M  V30 4 C -4.37091 0.23885 0.777574 0
M  V30 5 C -3.24362 0.182946 1.74281 0
M  V30 6 O -2.00363 0.134627 1.06664 0
M  V30 7 C -0.793281 0.077587 1.70863 0
M  V30 8 O -0.767498 0.066968 2.96128 0
M  V30 9 C 0.507286 0.0270614 0.982307 0
M  V30 10 C 0.503966 -1.21916 0.115352 0
M  V30 11 C 0.148393 -0.791187 -1.2665 0
M  V30 12 C 0.431729 0.673663 -1.34322 0
M  V30 13 C 0.552704 1.20609 0.0640835 0
M  V30 14 C 1.62729 -0.0548378 1.94659 0
M  V30 15 C 2.97848 -0.0998316 1.3359 0
M  V30 16 N 3.37122 -0.065406 0.0795528 0
M  V30 17 C 4.63937 -0.11994 -0.215866 0
M  V30 18 C 5.52485 -0.21291 0.823913 0
M  V30 19 S 4.46726 -0.215824 2.16882 0
M  V30 20 C 6.90962 -0.277828 0.623336 0
M  V30 21 C 7.45412 -0.250397 -0.657524 0
M  V30 22 C 6.55131 -0.156938 -1.68745 0
M  V30 23 C 5.19441 -0.0924321 -1.51123 0
M  V30 24 N -5.64857 0.29156 1.14828 0
M  V30 25 C -6.64559 0.34127 0.259401 0
M  V30 26 N -6.30922 0.336223 -1.05116 0
M  V30 27 N -8.01626 0.398128 0.615357 0
M  V30 28 H -5.31936 -0.27988 -3.55448 0
M  V30 29 H -3.99394 0.874161 -3.21179 0
M  V30 30 H -3.22189 1.12661 2.35819 0
M  V30 31 H -3.34008 -0.698397 2.39372 0
M  V30 32 H 1.45618 -1.75923 0.221539 0
M  V30 33 H -0.278656 -1.93273 0.486829 0
M  V30 34 H -0.949027 -0.965269 -1.41516 0
M  V30 35 H 0.711083 -1.38062 -2.02159 0
M  V30 36 H 1.32938 0.915215 -1.95168 0
M  V30 37 H -0.413952 1.15808 -1.89813 0
M  V30 38 H -0.306767 1.90464 0.220608 0
M  V30 39 H 1.46139 1.82902 0.199297 0
M  V30 40 H 1.48775 -0.930501 2.59257 0
M  V30 41 H 1.62026 0.845468 2.62666 0
M  V30 42 H 7.50997 -0.349022 1.51344 0
M  V30 43 H 8.50903 -0.301919 -0.763368 0
M  V30 44 H 7.00299 -0.136856 -2.68922 0
M  V30 45 H 4.5831 -0.0208976 -2.39584 0
M  V30 46 H -8.65889 0.983425 0.0536839 0
M  V30 47 H -8.36751 -0.141499 1.42934 0
M  V30 END ATOM
M  V30 BEGIN BOND
M  V30 1 1 1 2
M  V30 2 2 2 3
M  V30 3 1 3 4
M  V30 4 1 4 5
M  V30 5 1 5 6
M  V30 6 1 6 7
M  V30 7 2 7 8
M  V30 8 1 7 9
M  V30 9 1 9 10
M  V30 10 1 10 11
M  V30 11 1 11 12
M  V30 12 1 12 13
M  V30 13 1 9 14
M  V30 14 1 14 15
M  V30 15 2 15 16
M  V30 16 1 16 17
M  V30 17 2 17 18
M  V30 18 1 18 19
M  V30 19 1 18 20
M  V30 20 2 20 21
M  V30 21 1 21 22
M  V30 22 2 22 23
M  V30 23 2 4 24
M  V30 24 1 24 25
M  V30 25 2 25 26
M  V30 26 1 25 27
M  V30 27 1 26 2
M  V30 28 1 13 9
M  V30 29 1 19 15
M  V30 30 1 23 17
M  V30 31 1 1 28
M  V30 32 1 1 29
M  V30 33 1 5 30
M  V30 34 1 5 31
M  V30 35 1 10 32
M  V30 36 1 10 33
M  V30 37 1 11 34
M  V30 38 1 11 35
M  V30 39 1 12 36
M  V30 40 1 12 37
M  V30 41 1 13 38
M  V30 42 1 13 39
M  V30 43 1 14 40
M  V30 44 1 14 41
M  V30 45 1 20 42
M  V30 46 1 21 43
M  V30 47 1 22 44
M  V30 48 1 23 45
M  V30 49 1 27 46
M  V30 50 1 27 47
M  V30 END BOND
M  V30 END CTAB
M  END
