
     RDKit          3D

  0  0  0  0  0  0  0  0  0  0999 V3000
M  V30 BEGIN CTAB
M  V30 COUNTS 32 33 0 0 0
M  V30 BEGIN ATOM
M  V30 1 N -5.35541 -0.850133 1.24589 0
M  V30 2 C -4.59045 -0.36761 0.152248 0
M  V30 3 C -5.24585 0.219699 -0.904291 0
M  V30 4 C -4.511 0.68261 -1.9536 0
M  V30 5 C -3.13839 0.562605 -1.95207 0
M  V30 6 C -2.43089 -0.0269381 -0.900089 0
M  V30 7 C -3.19554 -0.484687 0.144094 0
M  V30 8 C -0.98944 -0.114685 -0.974776 0
M  V30 9 O -0.398565 0.338113 -1.97934 0
M  V30 10 N -0.215601 -0.698516 0.0546353 0
M  V30 11 N 1.17922 -0.791144 -0.00224432 0
M  V30 12 C 1.96879 0.214927 0.0412758 0
M  V30 13 C 3.42413 0.0896206 -0.0201327 0
M  V30 14 C 4.06478 -1.13026 -0.130649 0
M  V30 15 C 5.43893 -1.23552 -0.187814 0
M  V30 16 C 6.2126 -0.0961862 -0.134146 0
M  V30 17 C 5.55339 1.11374 -0.0236703 0
M  V30 18 N 4.21162 1.17742 0.0293476 0
M  V30 19 N 1.3967 1.49833 0.15373 0
M  V30 20 H -5.21693 -1.83931 1.55324 0
M  V30 21 H -6.04642 -0.243462 1.74441 0
M  V30 22 H -6.33778 0.320724 -0.916603 0
M  V30 23 H -4.99331 1.15402 -2.80928 0
M  V30 24 H -2.56936 0.938266 -2.79886 0
M  V30 25 H -2.72292 -0.945741 0.98076 0
M  V30 26 H -0.712873 -1.07609 0.893114 0
M  V30 27 H 3.435 -2.01521 -0.171312 0
M  V30 28 H 5.9231 -2.19516 -0.274046 0
M  V30 29 H 7.30918 -0.137166 -0.176688 0
M  V30 30 H 6.18433 2.00379 0.0172925 0
M  V30 31 H 1.8077 2.29991 -0.347905 0
M  V30 32 H 0.561246 1.63404 0.742398 0
M  V30 END ATOM
M  V30 BEGIN BOND
M  V30 1 1 1 2
M  V30 2 2 2 3
M  V30 3 1 3 4
M  V30 4 2 4 5
M  V30 5 1 5 6
M  V30 6 2 6 7
M  V30 7 1 6 8
M  V30 8 2 8 9
M  V30 9 1 8 10
M  V30 10 1 10 11
M  V30 11 2 11 12
M  V30 12 1 12 13
M  V30 13 2 13 14
M  V30 14 1 14 15
M  V30 15 2 15 16
M  V30 16 1 16 17
M  V30 17 2 17 18
M  V30 18 1 12 19
M  V30 19 1 7 2
M  V30 20 1 18 13
M  V30 21 1 1 20
M  V30 22 1 1 21
M  V30 23 1 3 22
M  V30 24 1 4 23
M  V30 25 1 5 24
M  V30 26 1 7 25
M  V30 27 1 10 26
M  V30 28 1 14 27
M  V30 29 1 15 28
M  V30 30 1 16 29
M  V30 31 1 17 30
M  V30 32 1 19 31
M  V30 33 1 19 32
M  V30 END BOND
M  V30 END CTAB
M  END
