
     RDKit          3D

  0  0  0  0  0  0  0  0  0  0999 V3000
M  V30 BEGIN CTAB
M  V30 COUNTS 44 45 0 0 0
M  V30 BEGIN ATOM
M  V30 1 C 0.586359 -1.94766 4.75195 0
M  V30 2 O 1.3517 -1.34607 3.73563 0
M  V30 3 C 0.979326 -1.29363 2.43633 0
M  V30 4 C -0.222047 -1.72634 1.89502 0
M  V30 5 C -0.545447 -1.62169 0.560633 0
M  V30 6 C -1.8364 -2.06823 -0.00668182 0
M  V30 7 C -2.76561 -0.984855 -0.354917 0
M  V30 8 C -3.50442 -0.321924 0.586159 0
M  V30 9 N -3.42904 -0.65462 1.93869 0
M  V30 10 N -4.34914 0.688033 0.220336 0
M  V30 11 C -4.48882 1.06535 -1.05174 0
M  V30 12 N -5.39666 2.13803 -1.40936 0
M  V30 13 N -3.77904 0.435534 -1.99847 0
M  V30 14 C -2.93714 -0.562538 -1.68047 0
M  V30 15 C 0.403953 -1.04792 -0.281664 0
M  V30 16 C 1.62749 -0.605163 0.221951 0
M  V30 17 O 2.60205 -0.0505074 -0.613259 0
M  V30 18 C 2.24637 0.111611 -1.95132 0
M  V30 19 C 3.17744 0.676247 -2.92761 0
M  V30 20 C 3.62861 2.06553 -2.64569 0
M  V30 21 C 4.44048 2.30349 -1.46973 0
M  V30 22 O 4.68409 3.64395 -1.08185 0
M  V30 23 O 4.96333 1.43694 -0.741482 0
M  V30 24 C 1.89977 -0.72741 1.55186 0
M  V30 25 Br 3.5395 -0.137963 2.27176 0
M  V30 26 H 1.08692 -2.89411 5.07872 0
M  V30 27 H 0.551892 -1.29815 5.67775 0
M  V30 28 H -0.471812 -2.1121 4.49511 0
M  V30 29 H -0.946268 -2.18213 2.55987 0
M  V30 30 H -2.32454 -2.84587 0.64557 0
M  V30 31 H -1.63059 -2.64496 -0.956809 0
M  V30 32 H -3.28525 0.115856 2.64578 0
M  V30 33 H -3.50076 -1.61045 2.34429 0
M  V30 34 H -6.05803 2.05443 -2.20569 0
M  V30 35 H -5.40094 3.02587 -0.863304 0
M  V30 36 H -2.35159 -1.08832 -2.42336 0
M  V30 37 H 0.172792 -0.953556 -1.31711 0
M  V30 38 H 1.93344 -0.904669 -2.33607 0
M  V30 39 H 1.26255 0.691225 -2.03627 0
M  V30 40 H 2.68811 0.709167 -3.95965 0
M  V30 41 H 4.06538 0.00832986 -3.129 0
M  V30 42 H 4.18894 2.51047 -3.5215 0
M  V30 43 H 2.70461 2.71276 -2.53006 0
M  V30 44 H 4.43846 3.9388 -0.124334 0
M  V30 END ATOM
M  V30 BEGIN BOND
M  V30 1 1 1 2
M  V30 2 1 2 3
M  V30 3 2 3 4
M  V30 4 1 4 5
M  V30 5 1 5 6
M  V30 6 1 6 7
M  V30 7 2 7 8
M  V30 8 1 8 9
M  V30 9 1 8 10
M  V30 10 2 10 11
M  V30 11 1 11 12
M  V30 12 1 11 13
M  V30 13 2 13 14
M  V30 14 2 5 15
M  V30 15 1 15 16
M  V30 16 1 16 17
M  V30 17 1 17 18
M  V30 18 1 18 19
M  V30 19 1 19 20
M  V30 20 1 20 21
M  V30 21 1 21 22
M  V30 22 2 21 23
M  V30 23 2 16 24
M  V30 24 1 24 25
M  V30 25 1 24 3
M  V30 26 1 14 7
M  V30 27 1 1 26
M  V30 28 1 1 27
M  V30 29 1 1 28
M  V30 30 1 4 29
M  V30 31 1 6 30
M  V30 32 1 6 31
M  V30 33 1 9 32
M  V30 34 1 9 33
M  V30 35 1 12 34
M  V30 36 1 12 35
M  V30 37 1 14 36
M  V30 38 1 15 37
M  V30 39 1 18 38
M  V30 40 1 18 39
M  V30 41 1 19 40
M  V30 42 1 19 41
M  V30 43 1 20 42
M  V30 44 1 20 43
M  V30 45 1 22 44
M  V30 END BOND
M  V30 END CTAB
M  END
