
     RDKit          3D

  0  0  0  0  0  0  0  0  0  0999 V3000
M  V30 BEGIN CTAB
M  V30 COUNTS 33 35 0 0 0
M  V30 BEGIN ATOM
M  V30 1 N 4.06471 -0.417248 -2.50229 0
M  V30 2 C 3.32 0.0607717 -1.38166 0
M  V30 3 N 3.77788 1.07428 -0.625876 0
M  V30 4 C 3.11441 1.55876 0.437295 0
M  V30 5 N 3.61591 2.63153 1.22398 0
M  V30 6 C 1.89842 1.0135 0.80204 0
M  V30 7 N 0.999843 1.24565 1.77305 0
M  V30 8 C -0.0387906 0.3891 1.65276 0
M  V30 9 N 0.244229 -0.375612 0.582478 0
M  V30 10 C -0.592267 -1.44039 0.0712791 0 CFG=1
M  V30 11 C -1.59192 -1.95701 1.04459 0
M  V30 12 N -2.68016 -1.02034 1.00283 0
M  V30 13 C -2.81303 -0.673938 -0.393267 0 CFG=1
M  V30 14 C -3.25148 0.774373 -0.476873 0
M  V30 15 O -4.4684 0.954261 0.166259 0
M  V30 16 C -1.45962 -0.848621 -1.0178 0
M  V30 17 C 1.42124 -0.0255444 0.0335082 0
M  V30 18 N 2.13597 -0.475892 -1.03262 0
M  V30 19 H 3.92924 -1.39459 -2.82641 0
M  V30 20 H 4.74445 0.171206 -3.01741 0
M  V30 21 H 4.11562 2.45483 2.13173 0
M  V30 22 H 3.51545 3.64136 0.944318 0
M  V30 23 H -0.915002 0.351879 2.30886 0
M  V30 24 H 0.0466259 -2.2618 -0.366713 0
M  V30 25 H -1.98672 -2.92256 0.631699 0
M  V30 26 H -1.19287 -2.10406 2.0662 0
M  V30 27 H -3.57257 -1.51117 1.30507 0
M  V30 28 H -3.58493 -1.28726 -0.866092 0
M  V30 29 H -2.5206 1.45291 0.0314071 0
M  V30 30 H -3.39196 1.0523 -1.55215 0
M  V30 31 H -4.35517 1.35373 1.08721 0
M  V30 32 H -1.04245 0.113532 -1.36422 0
M  V30 33 H -1.48605 -1.57794 -1.87317 0
M  V30 END ATOM
M  V30 BEGIN BOND
M  V30 1 1 1 2
M  V30 2 2 2 3
M  V30 3 1 3 4
M  V30 4 1 4 5
M  V30 5 2 4 6
M  V30 6 1 6 7
M  V30 7 2 7 8
M  V30 8 1 8 9
M  V30 9 1 9 10
M  V30 10 1 10 11
M  V30 11 1 11 12
M  V30 12 1 12 13
M  V30 13 1 13 14
M  V30 14 1 14 15
M  V30 15 1 13 16
M  V30 16 1 9 17
M  V30 17 2 17 18
M  V30 18 1 18 2
M  V30 19 1 17 6
M  V30 20 1 16 10
M  V30 21 1 1 19
M  V30 22 1 1 20
M  V30 23 1 5 21
M  V30 24 1 5 22
M  V30 25 1 8 23
M  V30 26 1 10 24 CFG=3
M  V30 27 1 11 25
M  V30 28 1 11 26
M  V30 29 1 12 27
M  V30 30 1 13 28 CFG=3
M  V30 31 1 14 29
M  V30 32 1 14 30
M  V30 33 1 15 31
M  V30 34 1 16 32
M  V30 35 1 16 33
M  V30 END BOND
M  V30 END CTAB
M  END
