
     RDKit          3D

  0  0  0  0  0  0  0  0  0  0999 V3000
M  V30 BEGIN CTAB
M  V30 COUNTS 25 25 0 0 0
M  V30 BEGIN ATOM
M  V30 1 N -3.15317 -0.331483 -0.00830042 0
M  V30 2 C -2.11176 -0.797181 0.801269 0
M  V30 3 C -0.749332 -0.870852 0.237049 0
M  V30 4 C -0.115143 0.366589 -0.245603 0
M  V30 5 C 1.29943 0.12188 -0.804185 0
M  V30 6 C 2.21314 -0.459969 0.251588 0
M  V30 7 N 3.52865 -0.650534 -0.379497 0
M  V30 8 C -0.794986 1.51902 -0.84039 0
M  V30 9 C -0.183545 1.63969 0.559395 0
M  V30 10 H -3.72395 0.441499 0.307578 0
M  V30 11 H -3.41914 -0.847391 -0.829619 0
M  V30 12 H -2.12935 -0.227684 1.7755 0
M  V30 13 H -2.3787 -1.84962 1.1255 0
M  V30 14 H -0.749139 -1.63072 -0.582082 0
M  V30 15 H -0.0961027 -1.33239 1.03662 0
M  V30 16 H 1.74852 1.07831 -1.14242 0
M  V30 17 H 1.26835 -0.543327 -1.68778 0
M  V30 18 H 2.30597 0.244066 1.10323 0
M  V30 19 H 1.88543 -1.44457 0.620055 0
M  V30 20 H 4.23657 -0.97679 0.293024 0
M  V30 21 H 3.38973 -1.30062 -1.19136 0
M  V30 22 H -0.264387 2.12679 -1.63379 0
M  V30 23 H -1.85882 1.7312 -0.843144 0
M  V30 24 H -0.853327 1.70067 1.42902 0
M  V30 25 H 0.705066 2.29341 0.648343 0
M  V30 END ATOM
M  V30 BEGIN BOND
M  V30 1 1 1 2
M  V30 2 1 2 3
M  V30 3 1 3 4
M  V30 4 1 4 5
M  V30 5 1 5 6
M  V30 6 1 6 7
M  V30 7 1 4 8
M  V30 8 1 8 9
M  V30 9 1 9 4
M  V30 10 1 1 10
M  V30 11 1 1 11
M  V30 12 1 2 12
M  V30 13 1 2 13
M  V30 14 1 3 14
M  V30 15 1 3 15
M  V30 16 1 5 16
M  V30 17 1 5 17
M  V30 18 1 6 18
M  V30 19 1 6 19
M  V30 20 1 7 20
M  V30 21 1 7 21
M  V30 22 1 8 22
M  V30 23 1 8 23
M  V30 24 1 9 24
M  V30 25 1 9 25
M  V30 END BOND
M  V30 END CTAB
M  END
