
     RDKit          3D

  0  0  0  0  0  0  0  0  0  0999 V3000
M  V30 BEGIN CTAB
M  V30 COUNTS 27 28 0 0 0
M  V30 BEGIN ATOM
M  V30 1 N -4.88078 -0.345791 -0.827485 0
M  V30 2 C -3.67127 0.161586 -0.288814 0
M  V30 3 C -3.69565 1.24026 0.58817 0
M  V30 4 C -2.54077 1.75654 1.12845 0
M  V30 5 C -1.30696 1.22455 0.822171 0
M  V30 6 C -1.23079 0.151659 -0.0447484 0
M  V30 7 C -2.4424 -0.351499 -0.580192 0
M  V30 8 O -0.135865 -0.446824 -0.419594 0
M  V30 9 C 1.16366 -0.590663 -0.402647 0
M  V30 10 C 1.76169 -1.61509 -1.17598 0
M  V30 11 C 3.105 -1.83754 -1.21859 0
M  V30 12 C 3.94908 -1.03881 -0.480319 0
M  V30 13 C 3.43507 -0.0265446 0.291778 0
M  V30 14 C 2.05504 0.176877 0.315089 0
M  V30 15 N 4.30161 0.794225 1.05032 0
M  V30 16 F 5.28942 -1.2757 -0.535004 0
M  V30 17 H -5.42161 -1.05825 -0.317729 0
M  V30 18 H -5.21142 0.00821702 -1.73639 0
M  V30 19 H -4.6426 1.67851 0.847658 0
M  V30 20 H -2.55343 2.60672 1.82034 0
M  V30 21 H -0.439735 1.67388 1.27814 0
M  V30 22 H -2.42881 -1.19847 -1.26937 0
M  V30 23 H 1.07645 -2.23247 -1.75003 0
M  V30 24 H 3.55746 -2.63002 -1.81788 0
M  V30 25 H 1.68474 0.977166 0.929226 0
M  V30 26 H 5.05355 0.373825 1.62217 0
M  V30 27 H 4.16932 1.82367 1.02258 0
M  V30 END ATOM
M  V30 BEGIN BOND
M  V30 1 1 1 2
M  V30 2 2 2 3
M  V30 3 1 3 4
M  V30 4 2 4 5
M  V30 5 1 5 6
M  V30 6 2 6 7
M  V30 7 1 6 8
M  V30 8 1 8 9
M  V30 9 2 9 10
M  V30 10 1 10 11
M  V30 11 2 11 12
M  V30 12 1 12 13
M  V30 13 2 13 14
M  V30 14 1 13 15
M  V30 15 1 12 16
M  V30 16 1 7 2
M  V30 17 1 14 9
M  V30 18 1 1 17
M  V30 19 1 1 18
M  V30 20 1 3 19
M  V30 21 1 4 20
M  V30 22 1 5 21
M  V30 23 1 7 22
M  V30 24 1 10 23
M  V30 25 1 11 24
M  V30 26 1 14 25
M  V30 27 1 15 26
M  V30 28 1 15 27
M  V30 END BOND
M  V30 END CTAB
M  END
