
     RDKit          3D

  0  0  0  0  0  0  0  0  0  0999 V3000
M  V30 BEGIN CTAB
M  V30 COUNTS 26 25 0 0 0
M  V30 BEGIN ATOM
M  V30 1 C -0.52381 1.15856 -1.75098 0
M  V30 2 C -0.734697 1.02435 -0.275397 0
M  V30 3 C -0.281911 -0.256551 0.311038 0
M  V30 4 N 1.03178 -0.634155 0.221155 0
M  V30 5 S 2.30932 0.201976 0.827207 0
M  V30 6 O 3.46812 -0.76692 1.06431 0
M  V30 7 O 2.12613 0.892159 2.13855 0
M  V30 8 N 2.8896 1.30832 -0.38113 0
M  V30 9 C -1.13535 -1.36746 -0.328612 0
M  V30 10 N -2.52762 -1.17206 -0.0582987 0
M  V30 11 C -0.722219 -0.252165 1.7847 0
M  V30 12 H -1.32435 0.66426 -2.33313 0
M  V30 13 H 0.434476 0.806388 -2.12038 0
M  V30 14 H -0.617684 2.25633 -2.00097 0
M  V30 15 H -0.384614 1.93061 0.247249 0
M  V30 16 H -1.85667 1.04915 -0.133075 0
M  V30 17 H 1.16694 -1.63437 0.0435987 0
M  V30 18 H 3.93588 1.41061 -0.323112 0
M  V30 19 H 2.70522 0.919695 -1.33525 0
M  V30 20 H -0.889858 -1.39984 -1.41746 0
M  V30 21 H -0.762434 -2.31669 0.0969619 0
M  V30 22 H -2.9215 -2.10934 0.243909 0
M  V30 23 H -2.99574 -0.951452 -0.980837 0
M  V30 24 H -0.223649 -1.10853 2.29043 0
M  V30 25 H -1.82074 -0.322767 1.87563 0
M  V30 26 H -0.344615 0.669883 2.29389 0
M  V30 END ATOM
M  V30 BEGIN BOND
M  V30 1 1 1 2
M  V30 2 1 2 3
M  V30 3 1 3 4
M  V30 4 1 4 5
M  V30 5 2 5 6
M  V30 6 2 5 7
M  V30 7 1 5 8
M  V30 8 1 3 9
M  V30 9 1 9 10
M  V30 10 1 3 11
M  V30 11 1 1 12
M  V30 12 1 1 13
M  V30 13 1 1 14
M  V30 14 1 2 15
M  V30 15 1 2 16
M  V30 16 1 4 17
M  V30 17 1 8 18
M  V30 18 1 8 19
M  V30 19 1 9 20
M  V30 20 1 9 21
M  V30 21 1 10 22
M  V30 22 1 10 23
M  V30 23 1 11 24
M  V30 24 1 11 25
M  V30 25 1 11 26
M  V30 END BOND
M  V30 END CTAB
M  END
