
     RDKit          3D

  0  0  0  0  0  0  0  0  0  0999 V3000
M  V30 BEGIN CTAB
M  V30 COUNTS 19 19 0 0 0
M  V30 BEGIN ATOM
M  V30 1 Br 3.51518 -2.18185 -0.157493 0
M  V30 2 C 1.86983 -1.2104 -0.0874512 0
M  V30 3 C 0.641173 -1.82121 -0.208618 0
M  V30 4 C -0.54198 -1.10611 -0.15611 0
M  V30 5 N -1.81477 -1.70924 -0.277787 0
M  V30 6 C -0.427569 0.257183 0.0247645 0
M  V30 7 C 0.78803 0.90334 0.150076 0
M  V30 8 C 1.9614 0.154581 0.0928671 0
M  V30 9 N 0.888204 2.29411 0.334036 0
M  V30 10 C -1.6935 1.06841 0.0869553 0
M  V30 11 H 0.604286 -2.89085 -0.348733 0
M  V30 12 H -2.47874 -1.33954 -0.981602 0
M  V30 13 H -2.08637 -2.50767 0.322924 0
M  V30 14 H 2.90878 0.668465 0.191877 0
M  V30 15 H 1.18551 2.6751 1.25357 0
M  V30 16 H 0.6673 2.94785 -0.442622 0
M  V30 17 H -1.43687 2.12056 -0.168528 0
M  V30 18 H -2.15229 0.950975 1.0656 0
M  V30 19 H -2.3976 0.726297 -0.693731 0
M  V30 END ATOM
M  V30 BEGIN BOND
M  V30 1 1 1 2
M  V30 2 2 2 3
M  V30 3 1 3 4
M  V30 4 1 4 5
M  V30 5 2 4 6
M  V30 6 1 6 7
M  V30 7 2 7 8
M  V30 8 1 7 9
M  V30 9 1 6 10
M  V30 10 1 8 2
M  V30 11 1 3 11
M  V30 12 1 5 12
M  V30 13 1 5 13
M  V30 14 1 8 14
M  V30 15 1 9 15
M  V30 16 1 9 16
M  V30 17 1 10 17
M  V30 18 1 10 18
M  V30 19 1 10 19
M  V30 END BOND
M  V30 END CTAB
M  END
