
     RDKit          3D

  0  0  0  0  0  0  0  0  0  0999 V3000
M  V30 BEGIN CTAB
M  V30 COUNTS 55 59 0 0 0
M  V30 BEGIN ATOM
M  V30 1 N -7.81223 1.61991 0.19485 0
M  V30 2 C -6.41432 1.38528 0.220305 0 CFG=2
M  V30 3 C -5.75041 2.39154 -0.734142 0
M  V30 4 O -6.26215 2.20202 -2.02717 0
M  V30 5 C -6.14343 0.0292902 -0.25397 0
M  V30 6 O -7.06014 -0.567589 -0.933564 0
M  V30 7 N -4.92619 -0.638292 0.00793864 0
M  V30 8 C -3.89925 -0.0125724 0.790484 0
M  V30 9 C -2.61843 -0.0575287 -0.0586638 0
M  V30 10 N -2.31579 -1.47132 -0.229016 0
M  V30 11 C -3.32164 -2.4838 -0.323372 0
M  V30 12 C -4.70083 -1.97234 -0.510504 0
M  V30 13 C -0.952142 -1.85623 -0.304522 0
M  V30 14 N 0.0545151 -0.950686 -0.215799 0
M  V30 15 C 1.35773 -1.27574 -0.283368 0
M  V30 16 C 1.66764 -2.60916 -0.452481 0
M  V30 17 C 3.00066 -2.9465 -0.522367 0
M  V30 18 C 3.97957 -1.97189 -0.424763 0
M  V30 19 C 3.66963 -0.636364 -0.255387 0
M  V30 20 C 2.35131 -0.29415 -0.185256 0
M  V30 21 C 4.75001 0.335228 -0.160366 0
M  V30 22 C 4.57731 1.6237 -0.616855 0
M  V30 23 C 5.58935 2.55952 -0.535889 0
M  V30 24 C 6.82503 2.23477 0.0115511 0
M  V30 25 O 7.94011 2.89321 0.214687 0
M  V30 26 C 8.84521 2.12768 0.776976 0
M  V30 27 N 10.1783 2.51597 1.14187 0
M  V30 28 N 8.27557 0.918585 0.939966 0
M  V30 29 C 6.99852 0.945495 0.468576 0
M  V30 30 C 5.97932 0.0201269 0.381787 0
M  V30 31 N 0.687632 -3.55038 -0.546107 0
M  V30 32 C -0.60312 -3.17872 -0.473139 0
M  V30 33 H -8.12488 2.39146 -0.322453 0
M  V30 34 H -8.39379 0.837142 0.223837 0
M  V30 35 H -6.0416 1.60192 1.22138 0
M  V30 36 H -5.95179 3.40746 -0.352905 0
M  V30 37 H -4.68293 2.14687 -0.786199 0
M  V30 38 H -7.16 1.7992 -2.02239 0
M  V30 39 H -3.6778 -0.731462 1.63872 0
M  V30 40 H -4.12005 0.983588 1.16676 0
M  V30 41 H -1.82587 0.477198 0.495467 0
M  V30 42 H -2.79025 0.358501 -1.06688 0
M  V30 43 H -3.07043 -3.11257 -1.22764 0
M  V30 44 H -3.2514 -3.18243 0.536948 0
M  V30 45 H -5.43585 -2.63497 0.0112304 0
M  V30 46 H -5.02148 -1.96886 -1.58077 0
M  V30 47 H 3.28342 -3.98927 -0.655454 0
M  V30 48 H 5.02573 -2.27421 -0.48417 0
M  V30 49 H 2.07811 0.724273 -0.055366 0
M  V30 50 H 3.63969 1.93786 -1.05284 0
M  V30 51 H 5.47867 3.5855 -0.889676 0
M  V30 52 H 10.9168 1.77986 1.18625 0
M  V30 53 H 10.3924 3.49547 1.35256 0
M  V30 54 H 6.13436 -0.987538 0.745993 0
M  V30 55 H -1.34837 -3.97407 -0.55395 0
M  V30 END ATOM
M  V30 BEGIN BOND
M  V30 1 1 1 2
M  V30 2 1 2 3
M  V30 3 1 3 4
M  V30 4 1 2 5
M  V30 5 2 5 6
M  V30 6 1 5 7
M  V30 7 1 7 8
M  V30 8 1 8 9
M  V30 9 1 9 10
M  V30 10 1 10 11
M  V30 11 1 11 12
M  V30 12 1 10 13
M  V30 13 2 13 14
M  V30 14 1 14 15
M  V30 15 2 15 16
M  V30 16 1 16 17
M  V30 17 2 17 18
M  V30 18 1 18 19
M  V30 19 2 19 20
M  V30 20 1 19 21
M  V30 21 2 21 22
M  V30 22 1 22 23
M  V30 23 2 23 24
M  V30 24 1 24 25
M  V30 25 1 25 26
M  V30 26 1 26 27
M  V30 27 2 26 28
M  V30 28 1 28 29
M  V30 29 2 29 30
M  V30 30 1 16 31
M  V30 31 2 31 32
M  V30 32 1 12 7
M  V30 33 1 32 13
M  V30 34 1 20 15
M  V30 35 1 30 21
M  V30 36 1 29 24
M  V30 37 1 1 33
M  V30 38 1 1 34
M  V30 39 1 2 35 CFG=1
M  V30 40 1 3 36
M  V30 41 1 3 37
M  V30 42 1 4 38
M  V30 43 1 8 39
M  V30 44 1 8 40
M  V30 45 1 9 41
M  V30 46 1 9 42
M  V30 47 1 11 43
M  V30 48 1 11 44
M  V30 49 1 12 45
M  V30 50 1 12 46
M  V30 51 1 17 47
M  V30 52 1 18 48
M  V30 53 1 20 49
M  V30 54 1 22 50
M  V30 55 1 23 51
M  V30 56 1 27 52
M  V30 57 1 27 53
M  V30 58 1 30 54
M  V30 59 1 32 55
M  V30 END BOND
M  V30 END CTAB
M  END
