
     RDKit          3D

  0  0  0  0  0  0  0  0  0  0999 V3000
M  V30 BEGIN CTAB
M  V30 COUNTS 16 16 0 0 0
M  V30 BEGIN ATOM
M  V30 1 N 2.81684 0.0117292 0.142667 0
M  V30 2 C 1.39838 0.0167229 0.0702622 0
M  V30 3 C 0.692206 1.20037 0.0470642 0
M  V30 4 C -0.696495 1.1694 -0.0242184 0
M  V30 5 Br -1.67086 2.79562 -0.0563331 0
M  V30 6 C -1.40929 -0.00963918 -0.0734657 0
M  V30 7 C -0.692635 -1.19034 -0.0496983 0
M  V30 8 C 0.704087 -1.16205 0.0219686 0
M  V30 9 Cl 1.61824 -2.66774 0.0522926 0
M  V30 10 N -2.82423 -0.0528419 -0.146262 0
M  V30 11 H 3.36044 -0.800527 0.512685 0
M  V30 12 H 3.39547 0.82698 -0.173003 0
M  V30 13 H 1.24783 2.11519 0.0854147 0
M  V30 14 H -1.21968 -2.12782 -0.0868234 0
M  V30 15 H -3.32883 -0.480709 -0.949278 0
M  V30 16 H -3.39148 0.355653 0.626727 0
M  V30 END ATOM
M  V30 BEGIN BOND
M  V30 1 1 1 2
M  V30 2 2 2 3
M  V30 3 1 3 4
M  V30 4 1 4 5
M  V30 5 2 4 6
M  V30 6 1 6 7
M  V30 7 2 7 8
M  V30 8 1 8 9
M  V30 9 1 6 10
M  V30 10 1 8 2
M  V30 11 1 1 11
M  V30 12 1 1 12
M  V30 13 1 3 13
M  V30 14 1 7 14
M  V30 15 1 10 15
M  V30 16 1 10 16
M  V30 END BOND
M  V30 END CTAB
M  END
