
     RDKit          3D

  0  0  0  0  0  0  0  0  0  0999 V3000
M  V30 BEGIN CTAB
M  V30 COUNTS 47 50 0 0 0
M  V30 BEGIN ATOM
M  V30 1 N 5.22227 1.30898 1.4426 0
M  V30 2 C 4.95355 1.37372 0.0244424 0
M  V30 3 C 4.34529 0.0438393 -0.398973 0
M  V30 4 C 4.0344 0.0325096 -1.87691 0
M  V30 5 C 2.57736 -0.272979 -2.01165 0
M  V30 6 N 2.03969 -0.406088 -0.681343 0
M  V30 7 C 3.02502 -0.10335 0.326819 0
M  V30 8 C 0.702753 -0.788923 -0.399628 0
M  V30 9 C 0.361661 -2.10761 -0.239625 0
M  V30 10 F 1.33817 -3.04682 -0.357367 0
M  V30 11 C -0.94857 -2.45696 0.034544 0
M  V30 12 N -1.31902 -3.82227 0.203199 0
M  V30 13 C -1.92384 -1.47835 0.149459 0
M  V30 14 C -3.23152 -1.8758 0.419968 0
M  V30 15 O -3.52225 -3.07029 0.561057 0
M  V30 16 C -4.16838 -0.869036 0.519255 0
M  V30 17 C -3.81409 0.454331 0.357493 0
M  V30 18 N -2.54817 0.825783 0.0973956 0
M  V30 19 C -2.23212 2.21097 -0.0472762 0
M  V30 20 C -1.88401 3.11254 1.07482 0
M  V30 21 C -3.21644 3.26644 0.506892 0
M  V30 22 C -1.59062 -0.133017 -0.0104676 0
M  V30 23 C -0.283147 0.175585 -0.281797 0
M  V30 24 F 0.0677556 1.48906 -0.457431 0
M  V30 25 C -5.56837 -1.16367 0.798784 0
M  V30 26 O -5.95008 -2.48706 0.965576 0
M  V30 27 O -6.43806 -0.279704 0.894684 0
M  V30 28 H 5.15579 0.344366 1.81033 0
M  V30 29 H 6.15263 1.71597 1.61449 0
M  V30 30 H 4.19667 2.17372 -0.202212 0
M  V30 31 H 5.88315 1.59073 -0.537931 0
M  V30 32 H 5.05192 -0.779673 -0.169078 0
M  V30 33 H 4.60264 -0.759465 -2.42127 0
M  V30 34 H 4.32409 0.990048 -2.3522 0
M  V30 35 H 2.39507 -1.24327 -2.531 0
M  V30 36 H 2.08812 0.536579 -2.58063 0
M  V30 37 H 3.1119 -0.987457 0.999311 0
M  V30 38 H 2.76428 0.808475 0.90055 0
M  V30 39 H -1.61331 -4.35881 -0.632296 0
M  V30 40 H -1.2967 -4.26467 1.12105 0
M  V30 41 H -4.55907 1.21189 0.430768 0
M  V30 42 H -2.03192 2.4865 -1.12835 0
M  V30 43 H -1.10748 3.89315 0.86652 0
M  V30 44 H -1.71239 2.61372 2.0438 0
M  V30 45 H -3.3887 4.20171 -0.0689439 0
M  V30 46 H -4.08154 2.97802 1.09029 0
M  V30 47 H -5.96442 -3.08338 0.132286 0
M  V30 END ATOM
M  V30 BEGIN BOND
M  V30 1 1 1 2
M  V30 2 1 2 3
M  V30 3 1 3 4
M  V30 4 1 4 5
M  V30 5 1 5 6
M  V30 6 1 6 7
M  V30 7 1 6 8
M  V30 8 2 8 9
M  V30 9 1 9 10
M  V30 10 1 9 11
M  V30 11 1 11 12
M  V30 12 2 11 13
M  V30 13 1 13 14
M  V30 14 2 14 15
M  V30 15 1 14 16
M  V30 16 2 16 17
M  V30 17 1 17 18
M  V30 18 1 18 19
M  V30 19 1 19 20
M  V30 20 1 20 21
M  V30 21 1 18 22
M  V30 22 2 22 23
M  V30 23 1 23 24
M  V30 24 1 16 25
M  V30 25 1 25 26
M  V30 26 2 25 27
M  V30 27 1 7 3
M  V30 28 1 23 8
M  V30 29 1 22 13
M  V30 30 1 21 19
M  V30 31 1 1 28
M  V30 32 1 1 29
M  V30 33 1 2 30
M  V30 34 1 2 31
M  V30 35 1 3 32
M  V30 36 1 4 33
M  V30 37 1 4 34
M  V30 38 1 5 35
M  V30 39 1 5 36
M  V30 40 1 7 37
M  V30 41 1 7 38
M  V30 42 1 12 39
M  V30 43 1 12 40
M  V30 44 1 17 41
M  V30 45 1 19 42
M  V30 46 1 20 43
M  V30 47 1 20 44
M  V30 48 1 21 45
M  V30 49 1 21 46
M  V30 50 1 26 47
M  V30 END BOND
M  V30 END CTAB
M  END
