
     RDKit          3D

  0  0  0  0  0  0  0  0  0  0999 V3000
M  V30 BEGIN CTAB
M  V30 COUNTS 54 58 0 0 0
M  V30 BEGIN ATOM
M  V30 1 O -2.37258 3.70319 1.14284 0
M  V30 2 C -2.80897 2.65823 0.565964 0
M  V30 3 C -1.8692 1.63078 0.181707 0
M  V30 4 C -0.4775 1.67651 0.390315 0
M  V30 5 N 0.229986 2.73989 1.01236 0
M  V30 6 N 0.0529988 0.548296 -0.0985238 0
M  V30 7 C -0.904082 -0.238169 -0.616571 0
M  V30 8 C -2.12018 0.432179 -0.446467 0
M  V30 9 N -3.21461 -0.19641 -0.904589 0
M  V30 10 C -3.23131 -1.39315 -1.5006 0
M  V30 11 C -4.40417 -1.98378 -1.95041 0
M  V30 12 C -4.39642 -3.21667 -2.56114 0
M  V30 13 C -3.19555 -3.8562 -2.718 0
M  V30 14 C -2.0193 -3.27158 -2.27072 0
M  V30 15 C -2.00979 -2.03795 -1.65731 0
M  V30 16 N -0.890036 -1.44512 -1.21354 0
M  V30 17 C 1.474 0.18953 -0.0867471 0
M  V30 18 C 1.81728 -0.56617 1.18111 0
M  V30 19 C 3.284 -0.89013 1.10584 0
M  V30 20 C 3.71154 -2.06435 0.529987 0
M  V30 21 C 5.0608 -2.33706 0.473489 0
M  V30 22 C 6.00388 -1.46495 0.979085 0
M  V30 23 C 5.59181 -0.277323 1.56276 0
M  V30 24 C 4.23508 -0.0330473 1.60422 0
M  V30 25 S 7.67774 -1.91987 0.849106 0
M  V30 26 O 7.77967 -3.42115 0.854479 0
M  V30 27 O 8.40782 -1.36755 2.04554 0
M  V30 28 N 8.38019 -1.3578 -0.622479 0
M  V30 29 N -4.18804 2.5814 0.343509 0
M  V30 30 C -5.10944 3.64255 0.746937 0
M  V30 31 C -6.5328 3.37982 0.966706 0
M  V30 32 C -6.12708 3.97481 -0.358786 0
M  V30 33 H 0.594253 2.65843 1.98411 0
M  V30 34 H 0.376107 3.61057 0.466491 0
M  V30 35 H -5.35639 -1.48936 -1.83234 0
M  V30 36 H -5.30894 -3.70198 -2.92391 0
M  V30 37 H -3.13484 -4.83965 -3.19789 0
M  V30 38 H -1.08678 -3.79276 -2.40472 0
M  V30 39 H 2.08705 1.11116 -0.108121 0
M  V30 40 H 1.73653 -0.420428 -0.95772 0
M  V30 41 H 1.63683 0.0492244 2.07904 0
M  V30 42 H 1.29034 -1.54017 1.22806 0
M  V30 43 H 2.95816 -2.73303 0.140457 0
M  V30 44 H 5.36024 -3.28582 0.00537718 0
M  V30 45 H 6.33782 0.398037 1.95525 0
M  V30 46 H 3.90097 0.907325 2.0659 0
M  V30 47 H 7.73143 -1.37801 -1.41397 0
M  V30 48 H 8.79549 -0.40328 -0.494749 0
M  V30 49 H -4.58798 1.74195 -0.126509 0
M  V30 50 H -4.62055 4.49556 1.23587 0
M  V30 51 H -6.95164 2.34954 1.00115 0
M  V30 52 H -7.07975 4.08373 1.61546 0
M  V30 53 H -6.315 5.04268 -0.569064 0
M  V30 54 H -6.19908 3.31753 -1.22366 0
M  V30 END ATOM
M  V30 BEGIN BOND
M  V30 1 2 1 2
M  V30 2 1 2 3
M  V30 3 2 3 4
M  V30 4 1 4 5
M  V30 5 1 4 6
M  V30 6 1 6 7
M  V30 7 2 7 8
M  V30 8 1 8 9
M  V30 9 2 9 10
M  V30 10 1 10 11
M  V30 11 2 11 12
M  V30 12 1 12 13
M  V30 13 2 13 14
M  V30 14 1 14 15
M  V30 15 2 15 16
M  V30 16 1 6 17
M  V30 17 1 17 18
M  V30 18 1 18 19
M  V30 19 2 19 20
M  V30 20 1 20 21
M  V30 21 2 21 22
M  V30 22 1 22 23
M  V30 23 2 23 24
M  V30 24 1 22 25
M  V30 25 2 25 26
M  V30 26 2 25 27
M  V30 27 1 25 28
M  V30 28 1 2 29
M  V30 29 1 29 30
M  V30 30 1 30 31
M  V30 31 1 31 32
M  V30 32 1 8 3
M  V30 33 1 15 10
M  V30 34 1 24 19
M  V30 35 1 32 30
M  V30 36 1 16 7
M  V30 37 1 5 33
M  V30 38 1 5 34
M  V30 39 1 11 35
M  V30 40 1 12 36
M  V30 41 1 13 37
M  V30 42 1 14 38
M  V30 43 1 17 39
M  V30 44 1 17 40
M  V30 45 1 18 41
M  V30 46 1 18 42
M  V30 47 1 20 43
M  V30 48 1 21 44
M  V30 49 1 23 45
M  V30 50 1 24 46
M  V30 51 1 28 47
M  V30 52 1 28 48
M  V30 53 1 29 49
M  V30 54 1 30 50
M  V30 55 1 31 51
M  V30 56 1 31 52
M  V30 57 1 32 53
M  V30 58 1 32 54
M  V30 END BOND
M  V30 END CTAB
M  END
