
     RDKit          3D

  0  0  0  0  0  0  0  0  0  0999 V3000
M  V30 BEGIN CTAB
M  V30 COUNTS 36 37 0 0 0
M  V30 BEGIN ATOM
M  V30 1 N 0.769534 2.77619 1.49075 0
M  V30 2 C 1.1826 1.53965 0.895577 0
M  V30 3 N 0.304454 0.582556 0.626029 0
M  V30 4 C 0.72939 -0.561713 0.0675334 0
M  V30 5 C -0.134582 -1.71569 -0.278834 0
M  V30 6 O -1.44127 -1.48406 0.0623541 0
M  V30 7 C -2.3214 -0.540244 -0.36972 0
M  V30 8 O -1.94062 0.289353 -1.22973 0
M  V30 9 C -3.68467 -0.496965 0.16189 0
M  V30 10 C -4.6566 0.42177 -0.209538 0
M  V30 11 C -4.43815 1.49735 -1.21188 0
M  V30 12 N -5.74185 0.109423 0.504989 0
M  V30 13 O -5.50482 -0.914249 1.27079 0
M  V30 14 C -4.2436 -1.33281 1.09966 0
M  V30 15 N -3.64416 -2.43044 1.77812 0
M  V30 16 N 2.04498 -0.721187 -0.210952 0
M  V30 17 C 2.95302 0.225815 0.0492497 0
M  V30 18 N 2.48906 1.37933 0.617808 0
M  V30 19 N 4.33263 0.0468981 -0.227874 0
M  V30 20 C 4.83281 0.258061 -1.56511 0
M  V30 21 C 5.26043 -0.337744 0.808135 0
M  V30 22 H -0.226022 3.03439 1.57388 0
M  V30 23 H 1.47219 3.46118 1.86219 0
M  V30 24 H 0.00991384 -2.0209 -1.34295 0
M  V30 25 H 0.233428 -2.57769 0.320763 0
M  V30 26 H -3.59234 2.14688 -0.91593 0
M  V30 27 H -5.35716 2.1291 -1.16765 0
M  V30 28 H -4.35952 1.12639 -2.2466 0
M  V30 29 H -2.7932 -2.89139 1.43295 0
M  V30 30 H -4.09131 -2.77492 2.64371 0
M  V30 31 H 4.6325 -0.609935 -2.229 0
M  V30 32 H 5.93899 0.465499 -1.51243 0
M  V30 33 H 4.39461 1.18501 -1.98627 0
M  V30 34 H 5.08612 0.262758 1.72822 0
M  V30 35 H 6.29732 -0.101671 0.47791 0
M  V30 36 H 5.20731 -1.426 1.03334 0
M  V30 END ATOM
M  V30 BEGIN BOND
M  V30 1 1 1 2
M  V30 2 2 2 3
M  V30 3 1 3 4
M  V30 4 1 4 5
M  V30 5 1 5 6
M  V30 6 1 6 7
M  V30 7 2 7 8
M  V30 8 1 7 9
M  V30 9 1 9 10
M  V30 10 1 10 11
M  V30 11 2 10 12
M  V30 12 1 12 13
M  V30 13 1 13 14
M  V30 14 1 14 15
M  V30 15 2 4 16
M  V30 16 1 16 17
M  V30 17 2 17 18
M  V30 18 1 17 19
M  V30 19 1 19 20
M  V30 20 1 19 21
M  V30 21 1 18 2
M  V30 22 2 14 9
M  V30 23 1 1 22
M  V30 24 1 1 23
M  V30 25 1 5 24
M  V30 26 1 5 25
M  V30 27 1 11 26
M  V30 28 1 11 27
M  V30 29 1 11 28
M  V30 30 1 15 29
M  V30 31 1 15 30
M  V30 32 1 20 31
M  V30 33 1 20 32
M  V30 34 1 20 33
M  V30 35 1 21 34
M  V30 36 1 21 35
M  V30 37 1 21 36
M  V30 END BOND
M  V30 END CTAB
M  END
