
     RDKit          3D

  0  0  0  0  0  0  0  0  0  0999 V3000
M  V30 BEGIN CTAB
M  V30 COUNTS 66 68 0 0 0
M  V30 BEGIN ATOM
M  V30 1 N 4.68494 -0.0340192 2.29688 0
M  V30 2 C 3.85463 0.606749 1.30307 0
M  V30 3 N 2.53834 0.35161 1.22839 0
M  V30 4 C 1.75294 0.931317 0.316859 0
M  V30 5 C 0.312522 0.611886 0.280472 0
M  V30 6 N -0.108612 -0.612593 0.804053 0
M  V30 7 C 0.360278 -1.81823 0.289016 0
M  V30 8 C -0.0617732 -2.22793 -1.05379 0
M  V30 9 C 0.839289 -2.63389 -2.00476 0
M  V30 10 C 0.450928 -3.03378 -3.27567 0
M  V30 11 C -0.887084 -3.02439 -3.59868 0
M  V30 12 C -1.80817 -2.62441 -2.67082 0
M  V30 13 C -1.37558 -2.23219 -1.40979 0
M  V30 14 C 0.205448 -3.03348 1.17473 0
M  V30 15 C 0.899673 -2.96661 2.48095 0
M  V30 16 C 0.68786 -4.274 0.440396 0
M  V30 17 C -0.980082 -0.538831 1.88822 0
M  V30 18 C -2.23944 0.206847 1.61725 0
M  V30 19 N -3.14914 0.282789 2.63433 0
M  V30 20 C -4.32137 0.945707 2.47852 0
M  V30 21 N -5.27601 1.0336 3.52626 0
M  V30 22 N -4.58203 1.53565 1.29622 0
M  V30 23 C -3.71185 1.48569 0.264519 0
M  V30 24 N -2.57377 0.811476 0.494181 0
M  V30 25 N -3.9897 2.11264 -0.977776 0
M  V30 26 C -4.68139 1.45686 -2.05845 0
M  V30 27 C -3.55433 3.47842 -1.1719 0
M  V30 28 N 2.33048 1.79346 -0.538252 0
M  V30 29 C 3.64023 2.09895 -0.524625 0
M  V30 30 N 4.37804 1.47602 0.423826 0
M  V30 31 N 4.23786 3.00592 -1.41778 0
M  V30 32 C 4.38248 4.39929 -1.07198 0
M  V30 33 C 4.70701 2.53375 -2.69786 0
M  V30 34 H 4.7561 0.306216 3.26132 0
M  V30 35 H 5.20938 -0.882608 1.93847 0
M  V30 36 H -0.156761 1.42572 0.922626 0
M  V30 37 H -0.0232981 0.790277 -0.781541 0
M  V30 38 H 1.48903 -1.70762 0.215309 0
M  V30 39 H 1.89025 -2.65095 -1.78753 0
M  V30 40 H 1.17064 -3.35496 -4.0259 0
M  V30 41 H -1.2442 -3.32663 -4.57585 0
M  V30 42 H -2.8708 -2.61133 -2.91176 0
M  V30 43 H -2.10701 -1.92618 -0.692245 0
M  V30 44 H -0.884384 -3.21049 1.37219 0
M  V30 45 H 1.1734 -1.91517 2.73325 0
M  V30 46 H 1.87678 -3.50431 2.40087 0
M  V30 47 H 0.361151 -3.46568 3.31262 0
M  V30 48 H 0.0150786 -4.59773 -0.353859 0
M  V30 49 H 0.802597 -5.1342 1.16814 0
M  V30 50 H 1.74064 -4.08514 0.112644 0
M  V30 51 H -1.28174 -1.47819 2.36908 0
M  V30 52 H -0.485628 0.0579303 2.71378 0
M  V30 53 H -6.24856 1.32098 3.32378 0
M  V30 54 H -5.00276 0.810337 4.5002 0
M  V30 55 H -4.5011 0.366051 -2.10504 0
M  V30 56 H -4.26879 1.8751 -3.02364 0
M  V30 57 H -5.76371 1.7174 -2.02544 0
M  V30 58 H -3.67663 3.83744 -2.19349 0
M  V30 59 H -4.17886 4.10246 -0.481603 0
M  V30 60 H -2.49092 3.5561 -0.815163 0
M  V30 61 H 4.48996 5.02404 -1.99892 0
M  V30 62 H 3.53053 4.8048 -0.495149 0
M  V30 63 H 5.28975 4.54831 -0.420666 0
M  V30 64 H 4.88879 1.43382 -2.71585 0
M  V30 65 H 5.64763 3.00929 -3.02848 0
M  V30 66 H 3.89085 2.76064 -3.43296 0
M  V30 END ATOM
M  V30 BEGIN BOND
M  V30 1 1 1 2
M  V30 2 2 2 3
M  V30 3 1 3 4
M  V30 4 1 4 5
M  V30 5 1 5 6
M  V30 6 1 6 7
M  V30 7 1 7 8
M  V30 8 2 8 9
M  V30 9 1 9 10
M  V30 10 2 10 11
M  V30 11 1 11 12
M  V30 12 2 12 13
M  V30 13 1 7 14
M  V30 14 1 14 15
M  V30 15 1 14 16
M  V30 16 1 6 17
M  V30 17 1 17 18
M  V30 18 2 18 19
M  V30 19 1 19 20
M  V30 20 1 20 21
M  V30 21 2 20 22
M  V30 22 1 22 23
M  V30 23 2 23 24
M  V30 24 1 23 25
M  V30 25 1 25 26
M  V30 26 1 25 27
M  V30 27 2 4 28
M  V30 28 1 28 29
M  V30 29 2 29 30
M  V30 30 1 29 31
M  V30 31 1 31 32
M  V30 32 1 31 33
M  V30 33 1 30 2
M  V30 34 1 13 8
M  V30 35 1 24 18
M  V30 36 1 1 34
M  V30 37 1 1 35
M  V30 38 1 5 36
M  V30 39 1 5 37
M  V30 40 1 7 38
M  V30 41 1 9 39
M  V30 42 1 10 40
M  V30 43 1 11 41
M  V30 44 1 12 42
M  V30 45 1 13 43
M  V30 46 1 14 44
M  V30 47 1 15 45
M  V30 48 1 15 46
M  V30 49 1 15 47
M  V30 50 1 16 48
M  V30 51 1 16 49
M  V30 52 1 16 50
M  V30 53 1 17 51
M  V30 54 1 17 52
M  V30 55 1 21 53
M  V30 56 1 21 54
M  V30 57 1 26 55
M  V30 58 1 26 56
M  V30 59 1 26 57
M  V30 60 1 27 58
M  V30 61 1 27 59
M  V30 62 1 27 60
M  V30 63 1 32 61
M  V30 64 1 32 62
M  V30 65 1 32 63
M  V30 66 1 33 64
M  V30 67 1 33 65
M  V30 68 1 33 66
M  V30 END BOND
M  V30 END CTAB
M  END
