
     RDKit          3D

  0  0  0  0  0  0  0  0  0  0999 V3000
M  V30 BEGIN CTAB
M  V30 COUNTS 21 21 0 0 0
M  V30 BEGIN ATOM
M  V30 1 N -3.09198 -0.658809 -0.496411 0
M  V30 2 C -2.47881 -0.351994 0.778903 0
M  V30 3 C -1.01547 -0.0929448 0.546306 0
M  V30 4 C -0.542957 1.1697 0.270565 0
M  V30 5 C 0.807964 1.4101 0.0556246 0
M  V30 6 N 1.19528 2.7418 -0.220903 0
M  V30 7 C 1.68634 0.354696 0.122076 0
M  V30 8 C 1.20659 -0.899766 0.397359 0
M  V30 9 N -0.109385 -1.09293 0.599757 0
M  V30 10 C 2.19493 -2.01724 0.460202 0
M  V30 11 H -3.23438 -1.68956 -0.640174 0
M  V30 12 H -2.62647 -0.218442 -1.30125 0
M  V30 13 H -2.92298 0.51522 1.28459 0
M  V30 14 H -2.58745 -1.25247 1.41771 0
M  V30 15 H -1.27612 1.97652 0.22771 0
M  V30 16 H 1.74613 3.01719 -1.06164 0
M  V30 17 H 0.925379 3.50108 0.43823 0
M  V30 18 H 2.74945 0.55795 -0.0494723 0
M  V30 19 H 2.85016 -1.9094 1.36 0
M  V30 20 H 1.68046 -2.99982 0.58796 0
M  V30 21 H 2.8433 -2.06087 -0.428094 0
M  V30 END ATOM
M  V30 BEGIN BOND
M  V30 1 1 1 2
M  V30 2 1 2 3
M  V30 3 2 3 4
M  V30 4 1 4 5
M  V30 5 1 5 6
M  V30 6 2 5 7
M  V30 7 1 7 8
M  V30 8 2 8 9
M  V30 9 1 8 10
M  V30 10 1 9 3
M  V30 11 1 1 11
M  V30 12 1 1 12
M  V30 13 1 2 13
M  V30 14 1 2 14
M  V30 15 1 4 15
M  V30 16 1 6 16
M  V30 17 1 6 17
M  V30 18 1 7 18
M  V30 19 1 10 19
M  V30 20 1 10 20
M  V30 21 1 10 21
M  V30 END BOND
M  V30 END CTAB
M  END
