
     RDKit          3D

  0  0  0  0  0  0  0  0  0  0999 V3000
M  V30 BEGIN CTAB
M  V30 COUNTS 27 28 0 0 0
M  V30 BEGIN ATOM
M  V30 1 N -4.69515 0.729005 -1.01378 0
M  V30 2 C -3.47305 0.427467 -0.317457 0
M  V30 3 C -3.24676 -0.818606 0.224805 0
M  V30 4 C -2.06828 -1.1328 0.904612 0
M  V30 5 N -1.84853 -2.41378 1.45568 0
M  V30 6 N -1.16122 -0.130914 0.996049 0
M  V30 7 C -1.35309 1.09566 0.477265 0
M  V30 8 N -2.5053 1.35148 -0.169638 0
M  V30 9 S -0.104351 2.38833 0.63391 0
M  V30 10 C 0.989911 2.24164 -0.80796 0
M  V30 11 C 1.76645 0.979783 -0.798903 0
M  V30 12 N 1.46406 -0.222624 -1.31847 0
M  V30 13 O 2.4412 -1.06196 -1.07988 0
M  V30 14 C 3.40759 -0.492869 -0.417421 0
M  V30 15 C 3.00714 0.820605 -0.219654 0
M  V30 16 C 4.67262 -1.1337 0.0269477 0
M  V30 17 H -5.51757 1.16042 -0.586524 0
M  V30 18 H -4.71537 0.478767 -2.02592 0
M  V30 19 H -4.01013 -1.58326 0.120987 0
M  V30 20 H -2.62952 -2.9066 1.91981 0
M  V30 21 H -0.918154 -2.85988 1.39903 0
M  V30 22 H 0.379643 2.26226 -1.75797 0
M  V30 23 H 1.64878 3.13869 -0.876866 0
M  V30 24 H 3.59033 1.55426 0.299088 0
M  V30 25 H 5.3355 -0.339484 0.451328 0
M  V30 26 H 5.13951 -1.6558 -0.826042 0
M  V30 27 H 4.40373 -1.8761 0.807286 0
M  V30 END ATOM
M  V30 BEGIN BOND
M  V30 1 1 1 2
M  V30 2 2 2 3
M  V30 3 1 3 4
M  V30 4 1 4 5
M  V30 5 2 4 6
M  V30 6 1 6 7
M  V30 7 2 7 8
M  V30 8 1 7 9
M  V30 9 1 9 10
M  V30 10 1 10 11
M  V30 11 2 11 12
M  V30 12 1 12 13
M  V30 13 1 13 14
M  V30 14 2 14 15
M  V30 15 1 14 16
M  V30 16 1 8 2
M  V30 17 1 15 11
M  V30 18 1 1 17
M  V30 19 1 1 18
M  V30 20 1 3 19
M  V30 21 1 5 20
M  V30 22 1 5 21
M  V30 23 1 10 22
M  V30 24 1 10 23
M  V30 25 1 15 24
M  V30 26 1 16 25
M  V30 27 1 16 26
M  V30 28 1 16 27
M  V30 END BOND
M  V30 END CTAB
M  END
