
     RDKit          3D

  0  0  0  0  0  0  0  0  0  0999 V3000
M  V30 BEGIN CTAB
M  V30 COUNTS 28 28 0 0 0
M  V30 BEGIN ATOM
M  V30 1 C -2.89683 1.357 0.62174 0
M  V30 2 C -2.05523 0.152025 0.565774 0
M  V30 3 C -0.641985 0.335849 0.245378 0
M  V30 4 C -0.059056 1.50321 -0.161531 0
M  V30 5 C 1.28815 1.61849 -0.459573 0
M  V30 6 Cl 2.00495 3.13868 -0.982774 0
M  V30 7 C 2.10997 0.512639 -0.348286 0
M  V30 8 C 1.53473 -0.671608 0.0617079 0
M  V30 9 C 0.184654 -0.773842 0.356723 0
M  V30 10 N -0.284155 -2.05827 0.773197 0
M  V30 11 N 2.41323 -1.79379 0.16792 0
M  V30 12 C 3.56064 0.605595 -0.662438 0
M  V30 13 C -2.64835 -0.70519 -0.569322 0
M  V30 14 H -3.76359 1.13671 1.31695 0
M  V30 15 H -3.39557 1.62286 -0.346202 0
M  V30 16 H -2.44345 2.27132 1.01169 0
M  V30 17 H -2.12172 -0.487377 1.46741 0
M  V30 18 H -0.695434 2.36834 -0.249302 0
M  V30 19 H -0.307441 -2.79133 0.030278 0
M  V30 20 H -0.590724 -2.30827 1.71413 0
M  V30 21 H 3.00783 -1.82688 1.02308 0
M  V30 22 H 2.42336 -2.5107 -0.592899 0
M  V30 23 H 3.80803 0.00668832 -1.58336 0
M  V30 24 H 3.81301 1.65533 -0.935878 0
M  V30 25 H 4.20565 0.235659 0.148137 0
M  V30 26 H -3.49088 -1.29251 -0.159837 0
M  V30 27 H -1.88518 -1.28959 -1.09526 0
M  V30 28 H -3.0746 -0.0110476 -1.35745 0
M  V30 END ATOM
M  V30 BEGIN BOND
M  V30 1 1 1 2
M  V30 2 1 2 3
M  V30 3 2 3 4
M  V30 4 1 4 5
M  V30 5 1 5 6
M  V30 6 2 5 7
M  V30 7 1 7 8
M  V30 8 2 8 9
M  V30 9 1 9 10
M  V30 10 1 8 11
M  V30 11 1 7 12
M  V30 12 1 2 13
M  V30 13 1 9 3
M  V30 14 1 1 14
M  V30 15 1 1 15
M  V30 16 1 1 16
M  V30 17 1 2 17
M  V30 18 1 4 18
M  V30 19 1 10 19
M  V30 20 1 10 20
M  V30 21 1 11 21
M  V30 22 1 11 22
M  V30 23 1 12 23
M  V30 24 1 12 24
M  V30 25 1 12 25
M  V30 26 1 13 26
M  V30 27 1 13 27
M  V30 28 1 13 28
M  V30 END BOND
M  V30 END CTAB
M  END
