
     RDKit          3D

  0  0  0  0  0  0  0  0  0  0999 V3000
M  V30 BEGIN CTAB
M  V30 COUNTS 85 90 0 0 0
M  V30 BEGIN ATOM
M  V30 1 N 1.1046 -4.17426 0.321706 0
M  V30 2 C 0.333958 -3.4301 -0.0670581 0
M  V30 3 C -0.659892 -2.52965 -0.561645 0
M  V30 4 C -1.99718 -2.82191 -0.233862 0
M  V30 5 C -3.0401 -2.08797 -0.673985 0
M  V30 6 C -2.67713 -0.981347 -1.49938 0
M  V30 7 C -1.406 -0.715728 -1.79924 0
M  V30 8 C -0.322548 -1.47474 -1.34888 0
M  V30 9 C 1.0055 -1.09253 -1.76714 0
M  V30 10 C 1.96104 -0.447508 -0.926987 0
M  V30 11 C 3.01782 -1.16547 -0.395675 0
M  V30 12 C 3.98488 -0.659719 0.415801 0
M  V30 13 C 3.96951 0.685127 0.778526 0
M  V30 14 C 2.94707 1.43251 0.276024 0
M  V30 15 C 1.96404 0.876667 -0.558885 0
M  V30 16 C 0.98396 1.79344 -1.06422 0
M  V30 17 N 0.229108 2.55176 -1.47942 0
M  V30 18 N 4.97873 1.13564 1.65439 0
M  V30 19 C 5.16735 2.44871 2.08832 0
M  V30 20 O 4.50348 3.45158 1.77832 0
M  V30 21 C 6.33817 2.66744 3.06509 0
M  V30 22 S 7.31256 1.13388 3.18323 0
M  V30 23 C 8.18824 0.907075 1.62065 0
M  V30 24 N 8.35774 1.93554 0.882991 0
M  V30 25 C 9.02209 1.88074 -0.367366 0
M  V30 26 N 9.44829 0.730512 -0.74581 0
M  V30 27 C 9.32206 -0.525048 -0.0532117 0
M  V30 28 N 8.75443 -0.333735 1.24909 0
M  V30 29 C 10.6703 -1.14871 -0.0230628 0
M  V30 30 C 11.7721 -0.395666 0.364923 0
M  V30 31 C 13.02 -1.02457 0.389429 0
M  V30 32 C 13.2064 -2.33938 0.0487768 0
M  V30 33 C 12.0869 -3.06735 -0.335722 0
M  V30 34 C 10.8495 -2.46217 -0.363982 0
M  V30 35 Cl 9.42938 -3.35906 -0.857434 0
M  V30 36 Cl 14.7748 -3.12857 0.0742012 0
M  V30 37 N 9.20448 3.05644 -1.1628 0
M  V30 38 N -4.43274 -2.26178 -0.500196 0
M  V30 39 C -5.69686 -2.42766 -0.33675 0
M  V30 40 O -6.27591 -3.36247 0.350122 0
M  V30 41 C -6.79784 -1.5167 -0.930707 0
M  V30 42 S -6.90265 -0.177127 0.264454 0
M  V30 43 C -8.2645 0.891909 0.0175398 0
M  V30 44 N -8.19482 2.0829 0.558254 0
M  V30 45 C -9.24182 3.00384 0.421263 0
M  V30 46 N -10.2929 2.6835 -0.227032 0
M  V30 47 C -10.5288 1.37846 -0.859688 0
M  V30 48 N -9.37026 0.568944 -0.832481 0
M  V30 49 C -11.7162 0.80453 -0.193278 0
M  V30 50 C -12.8199 1.68332 -0.02875 0
M  V30 51 C -13.9896 1.28824 0.567641 0
M  V30 52 C -14.1317 -0.00828132 1.03797 0
M  V30 53 C -13.0666 -0.862058 0.879339 0
M  V30 54 C -11.8728 -0.437048 0.264596 0
M  V30 55 Cl -10.6123 -1.63845 0.164396 0
M  V30 56 Cl -15.6212 -0.511912 1.80315 0
M  V30 57 N -9.14127 4.32445 1.00822 0
M  V30 58 H -2.16691 -3.68412 0.423029 0
M  V30 59 H -3.51707 -0.373676 -1.86346 0
M  V30 60 H -1.19533 0.123833 -2.45147 0
M  V30 61 H 0.917571 -0.449953 -2.71071 0
M  V30 62 H 1.47689 -2.0383 -2.23517 0
M  V30 63 H 3.10477 -2.20787 -0.65327 0
M  V30 64 H 4.77285 -1.2779 0.787348 0
M  V30 65 H 2.88358 2.47352 0.518324 0
M  V30 66 H 5.65383 0.405658 2.02659 0
M  V30 67 H 6.91979 3.49095 2.65955 0
M  V30 68 H 5.94405 2.95702 4.05694 0
M  V30 69 H 8.65013 -1.20319 -0.649525 0
M  V30 70 H 8.76436 -1.13368 1.92601 0
M  V30 71 H 11.6532 0.629842 0.63309 0
M  V30 72 H 13.882 -0.43396 0.692064 0
M  V30 73 H 12.2232 -4.12617 -0.622271 0
M  V30 74 H 8.79477 3.20806 -2.09881 0
M  V30 75 H 9.79962 3.8319 -0.78037 0
M  V30 76 H -4.188 -3.39982 0.233494 0
M  V30 77 H -7.72529 -2.07481 -0.973569 0
M  V30 78 H -6.53037 -1.20116 -1.93622 0
M  V30 79 H -10.7383 1.6428 -1.95087 0
M  V30 80 H -9.27772 -0.284948 -1.46962 0
M  V30 81 H -12.7229 2.67648 -0.383957 0
M  V30 82 H -14.8448 1.94946 0.700973 0
M  V30 83 H -13.1584 -1.8922 1.23182 0
M  V30 84 H -9.9783 4.76065 1.40176 0
M  V30 85 H -8.23192 4.80308 1.02058 0
M  V30 END ATOM
M  V30 BEGIN BOND
M  V30 1 3 1 2
M  V30 2 1 2 3
M  V30 3 2 3 4
M  V30 4 1 4 5
M  V30 5 2 5 6
M  V30 6 1 6 7
M  V30 7 2 7 8
M  V30 8 1 8 9
M  V30 9 1 9 10
M  V30 10 2 10 11
M  V30 11 1 11 12
M  V30 12 2 12 13
M  V30 13 1 13 14
M  V30 14 2 14 15
M  V30 15 1 15 16
M  V30 16 3 16 17
M  V30 17 1 13 18
M  V30 18 1 18 19
M  V30 19 2 19 20
M  V30 20 1 19 21
M  V30 21 1 21 22
M  V30 22 1 22 23
M  V30 23 2 23 24
M  V30 24 1 24 25
M  V30 25 2 25 26
M  V30 26 1 26 27
M  V30 27 1 27 28
M  V30 28 1 27 29
M  V30 29 2 29 30
M  V30 30 1 30 31
M  V30 31 2 31 32
M  V30 32 1 32 33
M  V30 33 2 33 34
M  V30 34 1 34 35
M  V30 35 1 32 36
M  V30 36 1 25 37
M  V30 37 1 5 38
M  V30 38 1 38 39
M  V30 39 2 39 40
M  V30 40 1 39 41
M  V30 41 1 41 42
M  V30 42 1 42 43
M  V30 43 2 43 44
M  V30 44 1 44 45
M  V30 45 2 45 46
M  V30 46 1 46 47
M  V30 47 1 47 48
M  V30 48 1 47 49
M  V30 49 2 49 50
M  V30 50 1 50 51
M  V30 51 2 51 52
M  V30 52 1 52 53
M  V30 53 2 53 54
M  V30 54 1 54 55
M  V30 55 1 52 56
M  V30 56 1 45 57
M  V30 57 1 8 3
M  V30 58 1 15 10
M  V30 59 1 28 23
M  V30 60 1 34 29
M  V30 61 1 48 43
M  V30 62 1 54 49
M  V30 63 1 4 58
M  V30 64 1 6 59
M  V30 65 1 7 60
M  V30 66 1 9 61
M  V30 67 1 9 62
M  V30 68 1 11 63
M  V30 69 1 12 64
M  V30 70 1 14 65
M  V30 71 1 18 66
M  V30 72 1 21 67
M  V30 73 1 21 68
M  V30 74 1 27 69
M  V30 75 1 28 70
M  V30 76 1 30 71
M  V30 77 1 31 72
M  V30 78 1 33 73
M  V30 79 1 37 74
M  V30 80 1 37 75
M  V30 81 1 38 76
M  V30 82 1 41 77
M  V30 83 1 41 78
M  V30 84 1 47 79
M  V30 85 1 48 80
M  V30 86 1 50 81
M  V30 87 1 51 82
M  V30 88 1 53 83
M  V30 89 1 57 84
M  V30 90 1 57 85
M  V30 END BOND
M  V30 END CTAB
M  END
