
     RDKit          3D

  0  0  0  0  0  0  0  0  0  0999 V3000
M  V30 BEGIN CTAB
M  V30 COUNTS 21 21 0 0 0
M  V30 BEGIN ATOM
M  V30 1 Br 2.37838 -1.92706 1.92198 0
M  V30 2 C 2.89072 -0.823287 0.46644 0
M  V30 3 C 1.90918 0.0446232 -0.172441 0
M  V30 4 O 2.43951 0.94361 -0.974779 0
M  V30 5 C 0.470461 0.102181 -0.0906658 0
M  V30 6 C -0.334748 -0.792333 0.580508 0
M  V30 7 C -1.72888 -0.729814 0.612463 0
M  V30 8 N -2.49608 -1.68715 1.31356 0
M  V30 9 C -2.31453 0.304104 -0.0813317 0
M  V30 10 C -1.53988 1.21674 -0.764718 0
M  V30 11 C -0.168224 1.14624 -0.789511 0
M  V30 12 N 0.595847 2.11467 -1.51579 0
M  V30 13 F -2.11285 2.24269 -1.45353 0
M  V30 14 H 3.29247 -1.53692 -0.351311 0
M  V30 15 H 3.8498 -0.234803 0.695333 0
M  V30 16 H 0.0822392 -1.61546 1.11521 0
M  V30 17 H -3.49453 -1.80273 1.0768 0
M  V30 18 H -2.06302 -2.25776 2.04803 0
M  V30 19 H -3.3954 0.37383 -0.0737905 0
M  V30 20 H 0.837082 1.95244 -2.5139 0
M  V30 21 H 0.902456 2.96619 -1.04857 0
M  V30 END ATOM
M  V30 BEGIN BOND
M  V30 1 1 1 2
M  V30 2 1 2 3
M  V30 3 2 3 4
M  V30 4 1 3 5
M  V30 5 2 5 6
M  V30 6 1 6 7
M  V30 7 1 7 8
M  V30 8 2 7 9
M  V30 9 1 9 10
M  V30 10 2 10 11
M  V30 11 1 11 12
M  V30 12 1 10 13
M  V30 13 1 11 5
M  V30 14 1 2 14
M  V30 15 1 2 15
M  V30 16 1 6 16
M  V30 17 1 8 17
M  V30 18 1 8 18
M  V30 19 1 9 19
M  V30 20 1 12 20
M  V30 21 1 12 21
M  V30 END BOND
M  V30 END CTAB
M  END
