
     RDKit          3D

  0  0  0  0  0  0  0  0  0  0999 V3000
M  V30 BEGIN CTAB
M  V30 COUNTS 20 20 0 0 0
M  V30 BEGIN ATOM
M  V30 1 N 2.99698 0.18757 -0.406635 0
M  V30 2 C 2.12647 -0.0530599 0.745536 0
M  V30 3 C 0.697403 0.0695387 0.38337 0
M  V30 4 C 0.093882 1.30303 0.492739 0
M  V30 5 C -1.2566 1.40983 0.148485 0
M  V30 6 C -1.90476 2.68917 0.255866 0
M  V30 7 N -2.43073 3.73507 0.324019 0
M  V30 8 C -1.92472 0.288381 -0.282495 0
M  V30 9 C -1.34505 -0.9573 -0.40107 0
M  V30 10 C 0.00867812 -1.04222 -0.0510757 0
M  V30 11 N -2.05288 -2.10848 -0.84948 0
M  V30 12 H 3.97469 0.115846 -0.0330468 0
M  V30 13 H 2.87484 -0.636865 -1.03823 0
M  V30 14 H 2.33148 0.650746 1.57136 0
M  V30 15 H 2.36981 -1.10658 1.06847 0
M  V30 16 H 0.609899 2.19134 0.830512 0
M  V30 17 H -2.98264 0.341226 -0.559023 0
M  V30 18 H 0.468791 -2.0233 -0.1435 0
M  V30 19 H -2.81623 -1.98684 -1.53726 0
M  V30 20 H -1.83931 -3.06711 -0.518532 0
M  V30 END ATOM
M  V30 BEGIN BOND
M  V30 1 1 1 2
M  V30 2 1 2 3
M  V30 3 2 3 4
M  V30 4 1 4 5
M  V30 5 1 5 6
M  V30 6 3 6 7
M  V30 7 2 5 8
M  V30 8 1 8 9
M  V30 9 2 9 10
M  V30 10 1 9 11
M  V30 11 1 10 3
M  V30 12 1 1 12
M  V30 13 1 1 13
M  V30 14 1 2 14
M  V30 15 1 2 15
M  V30 16 1 4 16
M  V30 17 1 8 17
M  V30 18 1 10 18
M  V30 19 1 11 19
M  V30 20 1 11 20
M  V30 END BOND
M  V30 END CTAB
M  END
