
     RDKit          3D

  0  0  0  0  0  0  0  0  0  0999 V3000
M  V30 BEGIN CTAB
M  V30 COUNTS 47 49 0 0 0
M  V30 BEGIN ATOM
M  V30 1 C -2.51016 -0.6519 -2.30355 0
M  V30 2 C -2.23661 0.710513 -1.71049 0
M  V30 3 C -3.09586 0.945237 -0.533597 0
M  V30 4 N -4.22658 1.69494 -0.703029 0
M  V30 5 C -5.07323 1.94425 0.303342 0
M  V30 6 N -6.25639 2.72646 0.126143 0
M  V30 7 N -4.76537 1.41944 1.51411 0
M  V30 8 C -3.67168 0.676787 1.74287 0
M  V30 9 N -3.35201 0.131669 3.01063 0
M  V30 10 C -2.79238 0.420551 0.689004 0
M  V30 11 C -1.58749 -0.359815 0.877216 0
M  V30 12 C -1.44392 -1.69373 0.699409 0
M  V30 13 C -0.263506 -2.36483 0.901135 0
M  V30 14 C 0.848665 -1.66056 1.30745 0
M  V30 15 N 2.08861 -2.3204 1.53532 0
M  V30 16 C 3.31897 -1.62492 1.80243 0
M  V30 17 C 3.78463 -0.785717 0.666606 0
M  V30 18 C 3.24491 -0.931395 -0.586617 0
M  V30 19 C 3.70293 -0.124674 -1.62697 0
M  V30 20 C 4.69661 0.820565 -1.40595 0
M  V30 21 C 5.22102 0.942201 -0.126948 0
M  V30 22 C 4.76939 0.146461 0.900114 0
M  V30 23 N 5.1233 1.60926 -2.48543 0 CHG=1
M  V30 24 O 4.58211 1.45847 -3.724 0 CHG=-1
M  V30 25 O 6.01507 2.46198 -2.29717 0
M  V30 26 C 0.733128 -0.300474 1.49747 0
M  V30 27 C -0.456806 0.355293 1.29048 0
M  V30 28 H -1.61383 -1.28185 -2.38379 0
M  V30 29 H -2.97539 -0.51234 -3.31804 0
M  V30 30 H -3.32514 -1.14901 -1.71521 0
M  V30 31 H -1.16478 0.708681 -1.42404 0
M  V30 32 H -2.38501 1.4759 -2.50462 0
M  V30 33 H -7.03692 2.28931 -0.400325 0
M  V30 34 H -6.38827 3.69147 0.483122 0
M  V30 35 H -3.0991 -0.882885 3.09479 0
M  V30 36 H -3.36222 0.719773 3.86986 0
M  V30 37 H -2.32182 -2.25619 0.380429 0
M  V30 38 H -0.188214 -3.44518 0.74503 0
M  V30 39 H 2.07609 -3.38178 1.50189 0
M  V30 40 H 4.11803 -2.36187 2.0111 0
M  V30 41 H 3.15653 -1.01103 2.70625 0
M  V30 42 H 2.47469 -1.64691 -0.815523 0
M  V30 43 H 3.29619 -0.217911 -2.62301 0
M  V30 44 H 5.98823 1.6795 0.0227755 0
M  V30 45 H 5.22156 0.291723 1.87882 0
M  V30 46 H 1.62569 0.229384 1.82586 0
M  V30 47 H -0.493639 1.41556 1.45317 0
M  V30 END ATOM
M  V30 BEGIN BOND
M  V30 1 1 1 2
M  V30 2 1 2 3
M  V30 3 2 3 4
M  V30 4 1 4 5
M  V30 5 1 5 6
M  V30 6 2 5 7
M  V30 7 1 7 8
M  V30 8 1 8 9
M  V30 9 2 8 10
M  V30 10 1 10 11
M  V30 11 2 11 12
M  V30 12 1 12 13
M  V30 13 2 13 14
M  V30 14 1 14 15
M  V30 15 1 15 16
M  V30 16 1 16 17
M  V30 17 2 17 18
M  V30 18 1 18 19
M  V30 19 2 19 20
M  V30 20 1 20 21
M  V30 21 2 21 22
M  V30 22 1 20 23
M  V30 23 1 23 24
M  V30 24 2 23 25
M  V30 25 1 14 26
M  V30 26 2 26 27
M  V30 27 1 10 3
M  V30 28 1 27 11
M  V30 29 1 22 17
M  V30 30 1 1 28
M  V30 31 1 1 29
M  V30 32 1 1 30
M  V30 33 1 2 31
M  V30 34 1 2 32
M  V30 35 1 6 33
M  V30 36 1 6 34
M  V30 37 1 9 35
M  V30 38 1 9 36
M  V30 39 1 12 37
M  V30 40 1 13 38
M  V30 41 1 15 39
M  V30 42 1 16 40
M  V30 43 1 16 41
M  V30 44 1 18 42
M  V30 45 1 19 43
M  V30 46 1 21 44
M  V30 47 1 22 45
M  V30 48 1 26 46
M  V30 49 1 27 47
M  V30 END BOND
M  V30 END CTAB
M  END
