
     RDKit          3D

  0  0  0  0  0  0  0  0  0  0999 V3000
M  V30 BEGIN CTAB
M  V30 COUNTS 32 33 0 0 0
M  V30 BEGIN ATOM
M  V30 1 N -0.38285 1.97373 0.721026 0
M  V30 2 C 0.00170722 0.872649 -0.148385 0
M  V30 3 C -1.06031 0.697558 -1.18384 0
M  V30 4 C -2.37389 0.298028 -0.607928 0
M  V30 5 C -2.32883 -0.771299 0.412151 0
M  V30 6 C -1.13656 -0.830947 1.27347 0
M  V30 7 C 0.138619 -0.35014 0.70672 0
M  V30 8 N 1.01718 0.0162902 1.8284 0
M  V30 9 C 0.84923 -1.48874 -0.011853 0
M  V30 10 C 2.19267 -1.00979 -0.528416 0
M  V30 11 C 1.91272 0.0805872 -1.53675 0
M  V30 12 C 1.29616 1.23465 -0.807569 0
M  V30 13 H -0.427192 1.68587 1.72931 0
M  V30 14 H 0.290815 2.78154 0.643576 0
M  V30 15 H -0.804678 0.00575792 -1.99657 0
M  V30 16 H -1.20757 1.70564 -1.67194 0
M  V30 17 H -2.91081 1.22178 -0.255871 0
M  V30 18 H -3.01122 -0.0705609 -1.4641 0
M  V30 19 H -2.50894 -1.77448 -0.071258 0
M  V30 20 H -3.23146 -0.638718 1.08114 0
M  V30 21 H -1.33002 -0.286023 2.24155 0
M  V30 22 H -0.991212 -1.90283 1.59706 0
M  V30 23 H 1.70633 -0.730724 2.03763 0
M  V30 24 H 0.454066 0.1332 2.71687 0
M  V30 25 H 0.215901 -1.89111 -0.822237 0
M  V30 26 H 1.06142 -2.27566 0.740502 0
M  V30 27 H 2.69562 -1.84293 -1.04108 0
M  V30 28 H 2.79509 -0.659996 0.313646 0
M  V30 29 H 1.19231 -0.2975 -2.28544 0
M  V30 30 H 2.80562 0.417222 -2.0796 0
M  V30 31 H 1.07778 2.08319 -1.50861 0
M  V30 32 H 2.00234 1.61376 -0.0216137 0
M  V30 END ATOM
M  V30 BEGIN BOND
M  V30 1 1 1 2
M  V30 2 1 2 3
M  V30 3 1 3 4
M  V30 4 1 4 5
M  V30 5 1 5 6
M  V30 6 1 6 7
M  V30 7 1 7 8
M  V30 8 1 7 9
M  V30 9 1 9 10
M  V30 10 1 10 11
M  V30 11 1 11 12
M  V30 12 1 7 2
M  V30 13 1 12 2
M  V30 14 1 1 13
M  V30 15 1 1 14
M  V30 16 1 3 15
M  V30 17 1 3 16
M  V30 18 1 4 17
M  V30 19 1 4 18
M  V30 20 1 5 19
M  V30 21 1 5 20
M  V30 22 1 6 21
M  V30 23 1 6 22
M  V30 24 1 8 23
M  V30 25 1 8 24
M  V30 26 1 9 25
M  V30 27 1 9 26
M  V30 28 1 10 27
M  V30 29 1 10 28
M  V30 30 1 11 29
M  V30 31 1 11 30
M  V30 32 1 12 31
M  V30 33 1 12 32
M  V30 END BOND
M  V30 END CTAB
M  END
