
     RDKit          3D

  0  0  0  0  0  0  0  0  0  0999 V3000
M  V30 BEGIN CTAB
M  V30 COUNTS 36 38 0 0 0
M  V30 BEGIN ATOM
M  V30 1 N 6.06093 1.53639 0.472548 0
M  V30 2 C 4.75908 0.933098 0.343472 0
M  V30 3 N 3.8513 1.01333 1.3332 0
M  V30 4 C 2.62376 0.469206 1.2644 0
M  V30 5 C 2.25676 -0.212483 0.124718 0
M  V30 6 C 1.00297 -0.777757 0.034158 0
M  V30 7 C 0.0660538 -0.694716 1.05638 0
M  V30 8 C 0.444053 -0.00622274 2.20083 0
M  V30 9 C 1.69726 0.559659 2.2933 0
M  V30 10 S -1.48429 -1.43143 0.863416 0
M  V30 11 O -1.95366 -1.92276 2.18233 0
M  V30 12 O -1.32767 -2.57425 -0.131257 0
M  V30 13 N -2.59556 -0.316383 0.17968 0
M  V30 14 C -2.22814 0.143693 -1.12081 0
M  V30 15 C -2.88033 1.48653 -1.38858 0
M  V30 16 S -4.13424 1.79948 -0.13856 0
M  V30 17 C -4.98395 0.216209 0.188441 0
M  V30 18 C -3.94324 -0.861903 0.219912 0
M  V30 19 C 3.19676 -0.289426 -0.886982 0
M  V30 20 N 2.79633 -0.999281 -2.05799 0
M  V30 21 N 4.41466 0.270944 -0.774424 0
M  V30 22 H 6.20367 2.4991 0.820818 0
M  V30 23 H 6.87066 0.954908 0.196235 0
M  V30 24 H 0.724471 -1.31113 -0.865385 0
M  V30 25 H -0.288049 0.0560471 2.99378 0
M  V30 26 H 1.98639 1.09689 3.19147 0
M  V30 27 H -1.13157 0.299532 -1.15571 0
M  V30 28 H -2.49008 -0.578518 -1.93145 0
M  V30 29 H -2.12872 2.31534 -1.31521 0
M  V30 30 H -3.27775 1.54599 -2.42641 0
M  V30 31 H -5.60831 0.283039 1.07906 0
M  V30 32 H -5.64789 0.0235459 -0.678335 0
M  V30 33 H -4.03147 -1.36867 1.21408 0
M  V30 34 H -4.1148 -1.62258 -0.540894 0
M  V30 35 H 2.69235 -0.512665 -2.97194 0
M  V30 36 H 2.60227 -2.02275 -2.00789 0
M  V30 END ATOM
M  V30 BEGIN BOND
M  V30 1 1 1 2
M  V30 2 2 2 3
M  V30 3 1 3 4
M  V30 4 2 4 5
M  V30 5 1 5 6
M  V30 6 2 6 7
M  V30 7 1 7 8
M  V30 8 2 8 9
M  V30 9 1 7 10
M  V30 10 2 10 11
M  V30 11 2 10 12
M  V30 12 1 10 13
M  V30 13 1 13 14
M  V30 14 1 14 15
M  V30 15 1 15 16
M  V30 16 1 16 17
M  V30 17 1 17 18
M  V30 18 1 5 19
M  V30 19 1 19 20
M  V30 20 2 19 21
M  V30 21 1 21 2
M  V30 22 1 9 4
M  V30 23 1 18 13
M  V30 24 1 1 22
M  V30 25 1 1 23
M  V30 26 1 6 24
M  V30 27 1 8 25
M  V30 28 1 9 26
M  V30 29 1 14 27
M  V30 30 1 14 28
M  V30 31 1 15 29
M  V30 32 1 15 30
M  V30 33 1 17 31
M  V30 34 1 17 32
M  V30 35 1 18 33
M  V30 36 1 18 34
M  V30 37 1 20 35
M  V30 38 1 20 36
M  V30 END BOND
M  V30 END CTAB
M  END
