
     RDKit          3D

  0  0  0  0  0  0  0  0  0  0999 V3000
M  V30 BEGIN CTAB
M  V30 COUNTS 23 24 0 0 0
M  V30 BEGIN ATOM
M  V30 1 N -2.54419 -2.14733 0.249118 0
M  V30 2 C -1.81895 -0.91726 0.179167 0
M  V30 3 C -2.49331 0.285271 0.0867791 0
M  V30 4 C -1.82012 1.49309 0.0174213 0
M  V30 5 N -2.5093 2.73593 -0.0779602 0
M  V30 6 C -0.434192 1.43125 0.0456229 0
M  V30 7 C 0.225632 0.238428 0.137107 0
M  V30 8 C -0.448588 -0.962126 0.205958 0
M  V30 9 C 1.70195 0.230352 0.163229 0
M  V30 10 N 2.5228 1.29554 0.106001 0
M  V30 11 N 3.78089 0.880266 0.155617 0
M  V30 12 C 3.80658 -0.465993 0.24634 0
M  V30 13 N 2.51296 -0.837786 0.24889 0
M  V30 14 O 4.93628 -1.29239 0.321303 0
M  V30 15 H -3.49149 -2.2191 -0.161293 0
M  V30 16 H -2.16054 -3.00684 0.705809 0
M  V30 17 H -3.58165 0.338275 0.0643206 0
M  V30 18 H -2.5873 3.26362 -0.974836 0
M  V30 19 H -2.96433 3.16448 0.756596 0
M  V30 20 H 0.0922495 2.37028 -0.00824185 0
M  V30 21 H 0.120083 -1.88276 0.277593 0
M  V30 22 H 2.17905 -1.82245 0.309143 0
M  V30 23 H 4.97549 -2.17274 -0.21183 0
M  V30 END ATOM
M  V30 BEGIN BOND
M  V30 1 1 1 2
M  V30 2 2 2 3
M  V30 3 1 3 4
M  V30 4 1 4 5
M  V30 5 2 4 6
M  V30 6 1 6 7
M  V30 7 2 7 8
M  V30 8 1 7 9
M  V30 9 2 9 10
M  V30 10 1 10 11
M  V30 11 2 11 12
M  V30 12 1 12 13
M  V30 13 1 12 14
M  V30 14 1 8 2
M  V30 15 1 13 9
M  V30 16 1 1 15
M  V30 17 1 1 16
M  V30 18 1 3 17
M  V30 19 1 5 18
M  V30 20 1 5 19
M  V30 21 1 6 20
M  V30 22 1 8 21
M  V30 23 1 13 22
M  V30 24 1 14 23
M  V30 END BOND
M  V30 END CTAB
M  END
