
     RDKit          3D

  0  0  0  0  0  0  0  0  0  0999 V3000
M  V30 BEGIN CTAB
M  V30 COUNTS 52 55 0 0 0
M  V30 BEGIN ATOM
M  V30 1 N -3.79209 -0.918146 4.27836 0
M  V30 2 C -3.08053 -0.900438 3.04388 0
M  V30 3 C -2.64407 -2.03449 2.39734 0
M  V30 4 C -1.95356 -1.99034 1.19053 0
M  V30 5 C -1.6941 -0.770728 0.61493 0
M  V30 6 C -2.14797 0.368824 1.29145 0
M  V30 7 C -2.82545 0.325679 2.47704 0
M  V30 8 N -1.07352 -0.58774 -0.629139 0
M  V30 9 C 0.141912 -0.0153546 -0.908521 0
M  V30 10 O 0.375711 0.107434 -2.22675 0
M  V30 11 N 1.21227 0.480955 -0.166862 0
M  V30 12 C 2.27215 1.15633 -0.914485 0
M  V30 13 C 1.87892 2.27235 -1.63173 0
M  V30 14 C 2.78854 2.98291 -2.39556 0
M  V30 15 C 4.08545 2.53656 -2.40977 0
M  V30 16 C 4.50326 1.41935 -1.69642 0
M  V30 17 C 3.56481 0.712795 -0.927773 0
M  V30 18 N 5.01228 3.26962 -3.20879 0
M  V30 19 C 1.37479 0.32086 1.22127 0
M  V30 20 C 1.35561 1.36393 2.11991 0
M  V30 21 C 1.54618 1.23408 3.47967 0
M  V30 22 C 1.77089 -0.0129214 3.98399 0
M  V30 23 C 1.79606 -1.08148 3.11039 0
M  V30 24 C 1.60819 -0.956847 1.76447 0
M  V30 25 C -1.86057 -1.11105 -1.74215 0
M  V30 26 C -1.67007 -2.40144 -2.17139 0
M  V30 27 C -2.40616 -2.95337 -3.23091 0
M  V30 28 C -3.33843 -2.15837 -3.83995 0
M  V30 29 C -3.55795 -0.865908 -3.44378 0
M  V30 30 C -2.80837 -0.369559 -2.39675 0
M  V30 31 H -4.25401 -1.78227 4.57355 0
M  V30 32 H -3.85582 -0.0757198 4.89126 0
M  V30 33 H -2.85495 -2.98812 2.86339 0
M  V30 34 H -1.61948 -2.88554 0.706347 0
M  V30 35 H -1.94309 1.33057 0.840468 0
M  V30 36 H -3.16834 1.24025 2.9844 0
M  V30 37 H 0.853347 2.59522 -1.60061 0
M  V30 38 H 2.45851 3.85404 -2.95106 0
M  V30 39 H 5.52207 1.11934 -1.74335 0
M  V30 40 H 3.85847 -0.155496 -0.363908 0
M  V30 41 H 5.3417 2.81342 -4.09341 0
M  V30 42 H 5.33372 4.21203 -2.90988 0
M  V30 43 H 1.17946 2.39224 1.76406 0
M  V30 44 H 1.52276 2.09507 4.15549 0
M  V30 45 H 1.92218 -0.129241 5.05137 0
M  V30 46 H 1.97378 -2.06721 3.57535 0
M  V30 47 H 1.63807 -1.80489 1.12396 0
M  V30 48 H -0.916829 -3.03498 -1.67638 0
M  V30 49 H -2.22689 -3.9712 -3.53231 0
M  V30 50 H -3.92764 -2.55258 -4.66849 0
M  V30 51 H -4.3011 -0.277782 -3.95095 0
M  V30 52 H -2.9701 0.649344 -2.0718 0
M  V30 END ATOM
M  V30 BEGIN BOND
M  V30 1 1 1 2
M  V30 2 2 2 3
M  V30 3 1 3 4
M  V30 4 2 4 5
M  V30 5 1 5 6
M  V30 6 2 6 7
M  V30 7 1 5 8
M  V30 8 1 8 9
M  V30 9 2 9 10
M  V30 10 1 9 11
M  V30 11 1 11 12
M  V30 12 2 12 13
M  V30 13 1 13 14
M  V30 14 2 14 15
M  V30 15 1 15 16
M  V30 16 2 16 17
M  V30 17 1 15 18
M  V30 18 1 11 19
M  V30 19 2 19 20
M  V30 20 1 20 21
M  V30 21 2 21 22
M  V30 22 1 22 23
M  V30 23 2 23 24
M  V30 24 1 8 25
M  V30 25 2 25 26
M  V30 26 1 26 27
M  V30 27 2 27 28
M  V30 28 1 28 29
M  V30 29 2 29 30
M  V30 30 1 7 2
M  V30 31 1 17 12
M  V30 32 1 24 19
M  V30 33 1 30 25
M  V30 34 1 1 31
M  V30 35 1 1 32
M  V30 36 1 3 33
M  V30 37 1 4 34
M  V30 38 1 6 35
M  V30 39 1 7 36
M  V30 40 1 13 37
M  V30 41 1 14 38
M  V30 42 1 16 39
M  V30 43 1 17 40
M  V30 44 1 18 41
M  V30 45 1 18 42
M  V30 46 1 20 43
M  V30 47 1 21 44
M  V30 48 1 22 45
M  V30 49 1 23 46
M  V30 50 1 24 47
M  V30 51 1 26 48
M  V30 52 1 27 49
M  V30 53 1 28 50
M  V30 54 1 29 51
M  V30 55 1 30 52
M  V30 END BOND
M  V30 END CTAB
M  END
