
     RDKit          3D

  0  0  0  0  0  0  0  0  0  0999 V3000
M  V30 BEGIN CTAB
M  V30 COUNTS 27 28 0 0 0
M  V30 BEGIN ATOM
M  V30 1 N 6.97623 -0.0108528 0.111654 0
M  V30 2 C 5.58172 -0.0254048 0.461822 0
M  V30 3 N 5.05164 -0.166727 1.66229 0
M  V30 4 C 3.75325 -0.155989 1.79747 0
M  V30 5 C 2.99957 0.00375375 0.669331 0
M  V30 6 S 4.20851 0.13091 -0.534592 0
M  V30 7 N 1.55856 0.0487351 0.559422 0
M  V30 8 N 1.03333 -0.373452 -0.535683 0
M  V30 9 C -0.390501 -0.3076 -0.592781 0
M  V30 10 C -1.1249 -1.39739 -0.189729 0
M  V30 11 C -2.51176 -1.30513 -0.256164 0
M  V30 12 C -3.13049 -0.169 -0.707229 0
M  V30 13 C -2.34712 0.907395 -1.10403 0
M  V30 14 C -0.960613 0.847588 -1.0501 0
M  V30 15 S -4.85366 -0.0963572 -0.773611 0
M  V30 16 N -5.48924 0.506734 0.704138 0
M  V30 17 O -5.36026 0.740107 -1.90479 0
M  V30 18 O -5.37608 -1.49868 -0.979469 0
M  V30 19 H 7.38742 -0.68047 -0.576947 0
M  V30 20 H 7.58089 0.697376 0.569489 0
M  V30 21 H 3.26837 -0.271355 2.78625 0
M  V30 22 H -0.682788 -2.31387 0.172855 0
M  V30 23 H -3.1336 -2.13274 0.0484952 0
M  V30 24 H -2.87385 1.78745 -1.45449 0
M  V30 25 H -0.389301 1.70903 -1.3689 0
M  V30 26 H -4.70346 0.846882 1.29664 0
M  V30 27 H -6.07188 -0.210227 1.18867 0
M  V30 END ATOM
M  V30 BEGIN BOND
M  V30 1 1 1 2
M  V30 2 2 2 3
M  V30 3 1 3 4
M  V30 4 2 4 5
M  V30 5 1 5 6
M  V30 6 1 5 7
M  V30 7 2 7 8 CFG=2
M  V30 8 1 8 9
M  V30 9 2 9 10
M  V30 10 1 10 11
M  V30 11 2 11 12
M  V30 12 1 12 13
M  V30 13 2 13 14
M  V30 14 1 12 15
M  V30 15 1 15 16
M  V30 16 2 15 17
M  V30 17 2 15 18
M  V30 18 1 6 2
M  V30 19 1 14 9
M  V30 20 1 1 19
M  V30 21 1 1 20
M  V30 22 1 4 21
M  V30 23 1 10 22
M  V30 24 1 11 23
M  V30 25 1 13 24
M  V30 26 1 14 25
M  V30 27 1 16 26
M  V30 28 1 16 27
M  V30 END BOND
M  V30 END CTAB
M  END
