
     RDKit          3D

  0  0  0  0  0  0  0  0  0  0999 V3000
M  V30 BEGIN CTAB
M  V30 COUNTS 31 30 0 0 0
M  V30 BEGIN ATOM
M  V30 1 N 2.97161 1.93416 0.506316 0
M  V30 2 N 2.13597 0.945604 -0.0131095 0
M  V30 3 C 1.26697 0.151897 0.760462 0
M  V30 4 O 1.27424 0.376113 1.98844 0
M  V30 5 C 0.399399 -0.874609 0.199442 0
M  V30 6 C -0.670026 -0.461132 -0.724236 0
M  V30 7 C -1.70785 0.471886 -0.27215 0
M  V30 8 C -2.53591 0.0192935 0.89241 0
M  V30 9 C -1.23897 1.88767 -0.0404795 0
M  V30 10 N -0.0994968 0.0115517 -1.96671 0
M  V30 11 C 1.28626 -1.81463 -0.657885 0
M  V30 12 C -0.0672067 -1.7712 1.33141 0
M  V30 13 H 3.97335 1.62946 0.437629 0
M  V30 14 H 2.90057 2.76684 -0.137315 0
M  V30 15 H 2.15696 0.77983 -1.04086 0
M  V30 16 H -1.2068 -1.41694 -1.01572 0
M  V30 17 H -2.44561 0.546345 -1.13266 0
M  V30 18 H -2.08913 0.270656 1.87991 0
M  V30 19 H -2.8683 -1.02128 0.805006 0
M  V30 20 H -3.49136 0.625603 0.861186 0
M  V30 21 H -0.864282 2.05894 0.990304 0
M  V30 22 H -2.10232 2.61258 -0.144041 0
M  V30 23 H -0.52155 2.19895 -0.825396 0
M  V30 24 H 0.055926 -0.740319 -2.66087 0
M  V30 25 H -0.607799 0.837808 -2.34501 0
M  V30 26 H 0.633488 -2.58602 -1.11475 0
M  V30 27 H 1.72777 -1.17329 -1.44978 0
M  V30 28 H 2.09415 -2.22007 -0.0482207 0
M  V30 29 H -0.201977 -1.15989 2.25708 0
M  V30 30 H 0.762195 -2.49148 1.60298 0
M  V30 31 H -0.920261 -2.39435 1.07662 0
M  V30 END ATOM
M  V30 BEGIN BOND
M  V30 1 1 1 2
M  V30 2 1 2 3
M  V30 3 2 3 4
M  V30 4 1 3 5
M  V30 5 1 5 6
M  V30 6 1 6 7
M  V30 7 1 7 8
M  V30 8 1 7 9
M  V30 9 1 6 10
M  V30 10 1 5 11
M  V30 11 1 5 12
M  V30 12 1 1 13
M  V30 13 1 1 14
M  V30 14 1 2 15
M  V30 15 1 6 16
M  V30 16 1 7 17
M  V30 17 1 8 18
M  V30 18 1 8 19
M  V30 19 1 8 20
M  V30 20 1 9 21
M  V30 21 1 9 22
M  V30 22 1 9 23
M  V30 23 1 10 24
M  V30 24 1 10 25
M  V30 25 1 11 26
M  V30 26 1 11 27
M  V30 27 1 11 28
M  V30 28 1 12 29
M  V30 29 1 12 30
M  V30 30 1 12 31
M  V30 END BOND
M  V30 END CTAB
M  END
