
     RDKit          3D

  0  0  0  0  0  0  0  0  0  0999 V3000
M  V30 BEGIN CTAB
M  V30 COUNTS 21 21 0 0 0
M  V30 BEGIN ATOM
M  V30 1 C -3.37069 -0.758981 -0.695433 0
M  V30 2 C -2.07944 -0.117946 -0.387293 0
M  V30 3 C -0.898184 -0.84122 -0.269708 0
M  V30 4 Cl -0.949299 -2.55808 -0.494104 0
M  V30 5 C 0.302987 -0.243094 0.0171767 0
M  V30 6 N 1.52155 -0.952574 0.143042 0
M  V30 7 C 2.64595 -0.432488 0.406532 0
M  V30 8 N 3.76682 -1.30623 0.494557 0
M  V30 9 N 2.86719 0.956988 0.619868 0
M  V30 10 N 0.313121 1.08798 0.185968 0
M  V30 11 C -0.834239 1.8216 0.0756583 0
M  V30 12 C -2.05063 1.23855 -0.21202 0
M  V30 13 Cl -3.50239 2.22955 -0.343731 0
M  V30 14 H -3.5217 -0.885981 -1.77965 0
M  V30 15 H -4.19198 -0.171071 -0.219612 0
M  V30 16 H -3.38512 -1.7856 -0.250693 0
M  V30 17 H 3.78474 -1.95697 1.3089 0
M  V30 18 H 4.48221 -1.24322 -0.241648 0
M  V30 19 H 2.52926 1.45728 1.49215 0
M  V30 20 H 3.37412 1.57175 -0.0649199 0
M  V30 21 H -0.804272 2.88977 0.214959 0
M  V30 END ATOM
M  V30 BEGIN BOND
M  V30 1 1 1 2
M  V30 2 2 2 3
M  V30 3 1 3 4
M  V30 4 1 3 5
M  V30 5 1 5 6
M  V30 6 2 6 7
M  V30 7 1 7 8
M  V30 8 1 7 9
M  V30 9 2 5 10
M  V30 10 1 10 11
M  V30 11 2 11 12
M  V30 12 1 12 13
M  V30 13 1 12 2
M  V30 14 1 1 14
M  V30 15 1 1 15
M  V30 16 1 1 16
M  V30 17 1 8 17
M  V30 18 1 8 18
M  V30 19 1 9 19
M  V30 20 1 9 20
M  V30 21 1 11 21
M  V30 END BOND
M  V30 END CTAB
M  END
