
     RDKit          3D

  0  0  0  0  0  0  0  0  0  0999 V3000
M  V30 BEGIN CTAB
M  V30 COUNTS 35 37 0 0 0
M  V30 BEGIN ATOM
M  V30 1 N 2.93049 -2.45314 0.724063 0
M  V30 2 C 3.21932 -1.26221 -0.0193296 0
M  V30 3 C 2.68737 -0.0331728 0.580935 0
M  V30 4 C 1.20928 0.151777 0.70586 0
M  V30 5 C 0.539542 0.185364 -0.650867 0
M  V30 6 N -0.849075 0.530404 -0.626982 0
M  V30 7 C -1.13785 1.90174 -0.648962 0
M  V30 8 C -0.370758 3.0335 -0.655031 0
M  V30 9 C -0.903997 4.3099 -0.677478 0
M  V30 10 N -2.23635 4.44879 -0.694133 0
M  V30 11 C -2.9989 3.35483 -0.688469 0
M  V30 12 C -2.4937 2.06972 -0.666205 0
M  V30 13 N -2.99827 0.852676 -0.654945 0
M  V30 14 C -1.98203 -0.110931 -0.630009 0
M  V30 15 C -2.38629 -1.50786 -0.648836 0
M  V30 16 N -3.73095 -1.87304 -0.703665 0
M  V30 17 O -3.84735 -3.14529 -0.692178 0
M  V30 18 N -2.70147 -3.70088 -0.63353 0
M  V30 19 C -1.75269 -2.68053 -0.60402 0
M  V30 20 N -0.387105 -2.95779 -0.512159 0
M  V30 21 H 3.03339 -2.25722 1.7318 0
M  V30 22 H 3.44704 -3.27621 0.389768 0
M  V30 23 H 2.88188 -1.36178 -1.09687 0
M  V30 24 H 4.3418 -1.141 -0.11713 0
M  V30 25 H 3.09311 0.0481969 1.63506 0
M  V30 26 H 3.09456 0.898631 0.0825495 0
M  V30 27 H 0.841215 -0.739737 1.29777 0
M  V30 28 H 0.932415 1.01704 1.33137 0
M  V30 29 H 0.766984 -0.717288 -1.19729 0
M  V30 30 H 1.10242 0.969604 -1.28598 0
M  V30 31 H 0.697155 2.96417 -0.6421 0
M  V30 32 H -0.2333 5.15305 -0.680897 0
M  V30 33 H -4.06697 3.46001 -0.701527 0
M  V30 34 H 0.0631351 -3.12665 0.404406 0
M  V30 35 H 0.195948 -3.00467 -1.36896 0
M  V30 END ATOM
M  V30 BEGIN BOND
M  V30 1 1 1 2
M  V30 2 1 2 3
M  V30 3 1 3 4
M  V30 4 1 4 5
M  V30 5 1 5 6
M  V30 6 1 6 7
M  V30 7 2 7 8
M  V30 8 1 8 9
M  V30 9 2 9 10
M  V30 10 1 10 11
M  V30 11 2 11 12
M  V30 12 1 12 13
M  V30 13 2 13 14
M  V30 14 1 14 15
M  V30 15 2 15 16
M  V30 16 1 16 17
M  V30 17 1 17 18
M  V30 18 2 18 19
M  V30 19 1 19 20
M  V30 20 1 14 6
M  V30 21 1 19 15
M  V30 22 1 12 7
M  V30 23 1 1 21
M  V30 24 1 1 22
M  V30 25 1 2 23
M  V30 26 1 2 24
M  V30 27 1 3 25
M  V30 28 1 3 26
M  V30 29 1 4 27
M  V30 30 1 4 28
M  V30 31 1 5 29
M  V30 32 1 5 30
M  V30 33 1 8 31
M  V30 34 1 9 32
M  V30 35 1 11 33
M  V30 36 1 20 34
M  V30 37 1 20 35
M  V30 END BOND
M  V30 END CTAB
M  END
