
     RDKit          3D

  0  0  0  0  0  0  0  0  0  0999 V3000
M  V30 BEGIN CTAB
M  V30 COUNTS 40 41 0 0 0
M  V30 BEGIN ATOM
M  V30 1 N -2.1502 -3.03604 1.7979 0
M  V30 2 C -0.874814 -3.37508 1.26142 0
M  V30 3 C -0.604285 -2.78962 -0.0896141 0
M  V30 4 N -0.648026 -1.30748 -0.0828474 0
M  V30 5 C -1.86814 -0.67762 -0.371172 0
M  V30 6 O -2.84508 -1.48683 -0.630225 0
M  V30 7 C -2.1767 0.730837 -0.417102 0
M  V30 8 N -1.32469 1.72614 -0.182184 0
M  V30 9 C -1.60285 3.03655 -0.221424 0
M  V30 10 C -2.8971 3.41251 -0.535037 0
M  V30 11 N -3.79944 2.44998 -0.78174 0
M  V30 12 C -3.48342 1.14005 -0.733066 0
M  V30 13 N -4.46387 0.13177 -1.00029 0
M  V30 14 C 0.535925 -0.572472 0.208409 0
M  V30 15 C 1.39838 -0.228057 -0.968437 0
M  V30 16 C 2.57535 0.541787 -0.490918 0
M  V30 17 C 2.57256 1.91503 -0.395247 0
M  V30 18 C 3.69012 2.58264 0.0536742 0
M  V30 19 C 4.84604 1.93009 0.423454 0
M  V30 20 C 4.86103 0.558993 0.332326 0
M  V30 21 C 3.73915 -0.10235 -0.117709 0
M  V30 22 H -2.09512 -2.2594 2.48811 0
M  V30 23 H -2.65959 -3.83208 2.24363 0
M  V30 24 H -0.0651384 -3.1135 1.98754 0
M  V30 25 H -0.813817 -4.49259 1.12875 0
M  V30 26 H 0.337388 -3.15139 -0.541985 0
M  V30 27 H -1.41822 -3.14087 -0.768873 0
M  V30 28 H -0.812393 3.74249 -0.00845048 0
M  V30 29 H -3.10404 4.47162 -0.562287 0
M  V30 30 H -4.99328 -0.305192 -0.214406 0
M  V30 31 H -4.67086 -0.188879 -1.98967 0
M  V30 32 H 1.1548 -1.25127 0.875434 0
M  V30 33 H 0.358236 0.302323 0.844267 0
M  V30 34 H 0.848082 0.3714 -1.71104 0
M  V30 35 H 1.74109 -1.12908 -1.52472 0
M  V30 36 H 1.7065 2.48418 -0.666674 0
M  V30 37 H 3.70357 3.66479 0.134687 0
M  V30 38 H 5.73154 2.43792 0.777663 0
M  V30 39 H 5.75136 0.00132142 0.613268 0
M  V30 40 H 3.81994 -1.19263 -0.165421 0
M  V30 END ATOM
M  V30 BEGIN BOND
M  V30 1 1 1 2
M  V30 2 1 2 3
M  V30 3 1 3 4
M  V30 4 1 4 5
M  V30 5 2 5 6
M  V30 6 1 5 7
M  V30 7 2 7 8
M  V30 8 1 8 9
M  V30 9 2 9 10
M  V30 10 1 10 11
M  V30 11 2 11 12
M  V30 12 1 12 13
M  V30 13 1 4 14
M  V30 14 1 14 15
M  V30 15 1 15 16
M  V30 16 2 16 17
M  V30 17 1 17 18
M  V30 18 2 18 19
M  V30 19 1 19 20
M  V30 20 2 20 21
M  V30 21 1 12 7
M  V30 22 1 21 16
M  V30 23 1 1 22
M  V30 24 1 1 23
M  V30 25 1 2 24
M  V30 26 1 2 25
M  V30 27 1 3 26
M  V30 28 1 3 27
M  V30 29 1 9 28
M  V30 30 1 10 29
M  V30 31 1 13 30
M  V30 32 1 13 31
M  V30 33 1 14 32
M  V30 34 1 14 33
M  V30 35 1 15 34
M  V30 36 1 15 35
M  V30 37 1 17 36
M  V30 38 1 18 37
M  V30 39 1 19 38
M  V30 40 1 20 39
M  V30 41 1 21 40
M  V30 END BOND
M  V30 END CTAB
M  END
