
     RDKit          3D

  0  0  0  0  0  0  0  0  0  0999 V3000
M  V30 BEGIN CTAB
M  V30 COUNTS 18 19 0 0 0
M  V30 BEGIN ATOM
M  V30 1 N 3.26011 -0.810051 0.310567 0
M  V30 2 C 1.88377 -0.482742 0.106109 0
M  V30 3 N 0.923379 -1.42814 0.0566955 0
M  V30 4 C -0.368835 -1.09056 -0.137663 0
M  V30 5 C -0.66847 0.233544 -0.281703 0
M  V30 6 N -2.02 0.310397 -0.463039 0
M  V30 7 C -2.52331 -0.935059 -0.429353 0
M  V30 8 O -3.7605 -1.22543 -0.566692 0
M  V30 9 N -1.50919 -1.79778 -0.229332 0
M  V30 10 C 0.323357 1.1913 -0.229194 0
M  V30 11 N -0.0533846 2.5693 -0.387529 0
M  V30 12 N 1.58351 0.814365 -0.0358658 0
M  V30 13 H 3.76941 -1.2371 -0.4948 0
M  V30 14 H 3.69728 -0.616047 1.23361 0
M  V30 15 H -2.5261 1.21877 -0.600826 0
M  V30 16 H -1.59244 -2.83381 -0.157818 0
M  V30 17 H -0.898682 2.78707 -0.950076 0
M  V30 18 H 0.480088 3.33198 0.0324242 0
M  V30 END ATOM
M  V30 BEGIN BOND
M  V30 1 1 1 2
M  V30 2 2 2 3
M  V30 3 1 3 4
M  V30 4 2 4 5
M  V30 5 1 5 6
M  V30 6 1 6 7
M  V30 7 2 7 8
M  V30 8 1 7 9
M  V30 9 1 5 10
M  V30 10 1 10 11
M  V30 11 2 10 12
M  V30 12 1 12 2
M  V30 13 1 9 4
M  V30 14 1 1 13
M  V30 15 1 1 14
M  V30 16 1 6 15
M  V30 17 1 9 16
M  V30 18 1 11 17
M  V30 19 1 11 18
M  V30 END BOND
M  V30 END CTAB
M  END
