
     RDKit          3D

  0  0  0  0  0  0  0  0  0  0999 V3000
M  V30 BEGIN CTAB
M  V30 COUNTS 31 31 0 0 0
M  V30 BEGIN ATOM
M  V30 1 O -2.2956 -2.16008 0.58104 0
M  V30 2 C -1.09649 -1.89624 1.21381 0
M  V30 3 C -0.0256706 -1.38794 0.333484 0
M  V30 4 C -0.320464 -0.10039 -0.376726 0
M  V30 5 C -0.594026 1.03546 0.575822 0
M  V30 6 C -2.09508 1.20901 0.611999 0
M  V30 7 C -2.60113 0.702558 -0.720222 0
M  V30 8 C -1.47943 -0.119206 -1.28351 0
M  V30 9 N 0.894471 0.241332 -1.09071 0
M  V30 10 C 2.14574 0.467312 -0.472605 0
M  V30 11 N 3.06482 -0.425835 -0.387072 0
M  V30 12 N 4.28442 -0.149252 0.234985 0
M  V30 13 N 2.3982 1.76363 0.0872032 0
M  V30 14 H -2.23858 -3.04648 0.144475 0
M  V30 15 H -1.21638 -1.26384 2.12853 0
M  V30 16 H -0.74392 -2.89111 1.61935 0
M  V30 17 H 0.313689 -2.17967 -0.362044 0
M  V30 18 H 0.871836 -1.18127 0.989483 0
M  V30 19 H -0.179217 2.00896 0.210529 0
M  V30 20 H -0.152844 0.879305 1.58057 0
M  V30 21 H -2.49974 0.653459 1.47307 0
M  V30 22 H -2.38367 2.2821 0.760107 0
M  V30 23 H -3.55697 0.150589 -0.624091 0
M  V30 24 H -2.83679 1.57608 -1.37512 0
M  V30 25 H -1.17421 0.371446 -2.25729 0
M  V30 26 H -1.80832 -1.13228 -1.60372 0
M  V30 27 H 0.827666 0.321796 -2.12296 0
M  V30 28 H 5.12379 -0.661533 -0.163245 0
M  V30 29 H 4.38286 0.507981 1.03189 0
M  V30 30 H 2.37173 2.63575 -0.449317 0
M  V30 31 H 2.61932 1.78836 1.104 0
M  V30 END ATOM
M  V30 BEGIN BOND
M  V30 1 1 1 2
M  V30 2 1 2 3
M  V30 3 1 3 4
M  V30 4 1 4 5
M  V30 5 1 5 6
M  V30 6 1 6 7
M  V30 7 1 7 8
M  V30 8 1 4 9
M  V30 9 1 9 10
M  V30 10 2 10 11 CFG=2
M  V30 11 1 11 12
M  V30 12 1 10 13
M  V30 13 1 8 4
M  V30 14 1 1 14
M  V30 15 1 2 15
M  V30 16 1 2 16
M  V30 17 1 3 17
M  V30 18 1 3 18
M  V30 19 1 5 19
M  V30 20 1 5 20
M  V30 21 1 6 21
M  V30 22 1 6 22
M  V30 23 1 7 23
M  V30 24 1 7 24
M  V30 25 1 8 25
M  V30 26 1 8 26
M  V30 27 1 9 27
M  V30 28 1 12 28
M  V30 29 1 12 29
M  V30 30 1 13 30
M  V30 31 1 13 31
M  V30 END BOND
M  V30 END CTAB
M  END
