
     RDKit          3D

  0  0  0  0  0  0  0  0  0  0999 V3000
M  V30 BEGIN CTAB
M  V30 COUNTS 21 20 0 0 0
M  V30 BEGIN ATOM
M  V30 1 H -2.4162 -0.22434 1.22845 0 MASS=2
M  V30 2 C -2.41236 -0.458352 0.256785 0 CFG=1
M  V30 3 N -3.67497 -0.084158 -0.294091 0
M  V30 4 C -1.23547 0.199441 -0.395457 0
M  V30 5 C 0.0158565 -0.298128 0.29721 0
M  V30 6 C 1.26299 0.318652 -0.300957 0
M  V30 7 C 2.4636 -0.242563 0.460632 0
M  V30 8 N 3.6922 0.317234 -0.0733801 0
M  V30 9 H -2.27226 -1.5713 0.126703 0
M  V30 10 H -3.65286 0.698563 -0.963424 0
M  V30 11 H -4.47363 -0.127362 0.33751 0
M  V30 12 H -1.1312 -0.0317109 -1.47318 0
M  V30 13 H -1.25591 1.30631 -0.253638 0
M  V30 14 H 0.0201947 -0.0141396 1.37851 0
M  V30 15 H 0.0728657 -1.40603 0.263727 0
M  V30 16 H 1.20461 1.40799 -0.185147 0
M  V30 17 H 1.32556 0.0388532 -1.36803 0
M  V30 18 H 2.40775 0.0686882 1.51979 0
M  V30 19 H 2.49874 -1.34007 0.331033 0
M  V30 20 H 3.74748 1.30709 0.198035 0
M  V30 21 H 3.81302 0.135342 -1.09108 0
M  V30 END ATOM
M  V30 BEGIN BOND
M  V30 1 1 2 1 CFG=1
M  V30 2 1 2 3
M  V30 3 1 2 4
M  V30 4 1 4 5
M  V30 5 1 5 6
M  V30 6 1 6 7
M  V30 7 1 7 8
M  V30 8 1 2 9
M  V30 9 1 3 10
M  V30 10 1 3 11
M  V30 11 1 4 12
M  V30 12 1 4 13
M  V30 13 1 5 14
M  V30 14 1 5 15
M  V30 15 1 6 16
M  V30 16 1 6 17
M  V30 17 1 7 18
M  V30 18 1 7 19
M  V30 19 1 8 20
M  V30 20 1 8 21
M  V30 END BOND
M  V30 END CTAB
M  END
