
     RDKit          3D

  0  0  0  0  0  0  0  0  0  0999 V3000
M  V30 BEGIN CTAB
M  V30 COUNTS 32 33 0 0 0
M  V30 BEGIN ATOM
M  V30 1 N -5.47319 0.2888 0.391877 0
M  V30 2 C -4.14524 0.765292 0.233861 0
M  V30 3 N -3.78457 2.05819 0.475097 0
M  V30 4 C -2.53652 2.48814 0.322889 0
M  V30 5 C -1.53698 1.58244 -0.104094 0
M  V30 6 C -1.87471 0.273613 -0.355361 0
M  V30 7 C -3.18299 -0.125276 -0.182457 0
M  V30 8 N -3.53919 -1.47178 -0.437705 0
M  V30 9 O -0.279005 2.05068 -0.254122 0
M  V30 10 C 0.86184 1.37897 -0.606138 0
M  V30 11 C 1.28561 0.392998 0.442187 0
M  V30 12 C 2.52323 -0.346404 0.0209693 0
M  V30 13 C 2.44964 -1.51998 -0.684462 0
M  V30 14 C 3.57691 -2.21914 -1.08352 0
M  V30 15 C 4.81301 -1.72707 -0.765909 0
M  V30 16 C 4.91334 -0.546569 -0.0558391 0
M  V30 17 C 3.76794 0.147583 0.339882 0
M  V30 18 H -6.23686 0.860033 -0.0310609 0
M  V30 19 H -5.73619 -0.579672 0.893736 0
M  V30 20 H -2.23791 3.51247 0.511358 0
M  V30 21 H -1.16882 -0.478067 -0.715832 0
M  V30 22 H -4.43835 -1.76156 -0.863729 0
M  V30 23 H -2.87517 -2.24519 -0.19241 0
M  V30 24 H 1.70867 2.08917 -0.814872 0
M  V30 25 H 0.743992 0.766324 -1.55086 0
M  V30 26 H 0.4755 -0.262076 0.738785 0
M  V30 27 H 1.57991 1.03837 1.34623 0
M  V30 28 H 1.48443 -1.91238 -0.937361 0
M  V30 29 H 3.44185 -3.13392 -1.6348 0
M  V30 30 H 5.70334 -2.28563 -1.0849 0
M  V30 31 H 5.89058 -0.155101 0.19673 0
M  V30 32 H 3.8259 1.07674 0.898387 0
M  V30 END ATOM
M  V30 BEGIN BOND
M  V30 1 1 1 2
M  V30 2 2 2 3
M  V30 3 1 3 4
M  V30 4 2 4 5
M  V30 5 1 5 6
M  V30 6 2 6 7
M  V30 7 1 7 8
M  V30 8 1 5 9
M  V30 9 1 9 10
M  V30 10 1 10 11
M  V30 11 1 11 12
M  V30 12 2 12 13
M  V30 13 1 13 14
M  V30 14 2 14 15
M  V30 15 1 15 16
M  V30 16 2 16 17
M  V30 17 1 7 2
M  V30 18 1 17 12
M  V30 19 1 1 18
M  V30 20 1 1 19
M  V30 21 1 4 20
M  V30 22 1 6 21
M  V30 23 1 8 22
M  V30 24 1 8 23
M  V30 25 1 10 24
M  V30 26 1 10 25
M  V30 27 1 11 26
M  V30 28 1 11 27
M  V30 29 1 13 28
M  V30 30 1 14 29
M  V30 31 1 15 30
M  V30 32 1 16 31
M  V30 33 1 17 32
M  V30 END BOND
M  V30 END CTAB
M  END
