
     RDKit          3D

  0  0  0  0  0  0  0  0  0  0999 V3000
M  V30 BEGIN CTAB
M  V30 COUNTS 24 23 0 0 0
M  V30 BEGIN ATOM
M  V30 1 N -3.11308 -1.67717 0.484037 0
M  V30 2 C -1.94613 -0.979265 -0.0325981 0
M  V30 3 C -1.19414 -0.332884 1.10508 0
M  V30 4 N -0.0153924 0.380166 0.658924 0
M  V30 5 C 1.0753 -0.41005 0.133909 0
M  V30 6 C 2.25414 0.402224 -0.295712 0
M  V30 7 N 3.25015 -0.556626 -0.793714 0
M  V30 8 N -0.00341824 1.75721 0.763807 0 CHG=1
M  V30 9 O 0.32485 2.34477 1.9464 0 CHG=-1
M  V30 10 N -0.291122 2.47928 -0.217227 0
M  V30 11 O -0.640147 2.08974 -1.46448 0
M  V30 12 H -3.41941 -1.24861 1.39394 0
M  V30 13 H -2.89656 -2.68785 0.691073 0
M  V30 14 H -1.30648 -1.75622 -0.537368 0
M  V30 15 H -2.25953 -0.194856 -0.745043 0
M  V30 16 H -1.93039 0.366429 1.59189 0
M  V30 17 H -0.905091 -1.09547 1.86864 0
M  V30 18 H 0.718589 -0.978544 -0.76021 0
M  V30 19 H 1.43614 -1.1125 0.927379 0
M  V30 20 H 2.75334 0.926047 0.551996 0
M  V30 21 H 2.05365 1.08019 -1.15013 0
M  V30 22 H 3.3112 -1.29318 -0.051184 0
M  V30 23 H 4.17428 -0.09278 -0.936384 0
M  V30 24 H -1.43076 2.58994 -1.90012 0
M  V30 END ATOM
M  V30 BEGIN BOND
M  V30 1 1 1 2
M  V30 2 1 2 3
M  V30 3 1 3 4
M  V30 4 1 4 5
M  V30 5 1 5 6
M  V30 6 1 6 7
M  V30 7 1 4 8
M  V30 8 1 8 9
M  V30 9 2 8 10 CFG=2
M  V30 10 1 10 11
M  V30 11 1 1 12
M  V30 12 1 1 13
M  V30 13 1 2 14
M  V30 14 1 2 15
M  V30 15 1 3 16
M  V30 16 1 3 17
M  V30 17 1 5 18
M  V30 18 1 5 19
M  V30 19 1 6 20
M  V30 20 1 6 21
M  V30 21 1 7 22
M  V30 22 1 7 23
M  V30 23 1 11 24
M  V30 END BOND
M  V30 END CTAB
M  END
