
     RDKit          3D

  0  0  0  0  0  0  0  0  0  0999 V3000
M  V30 BEGIN CTAB
M  V30 COUNTS 41 43 0 0 0
M  V30 BEGIN ATOM
M  V30 1 C -2.9959 3.21319 0.77571 0
M  V30 2 C -2.5673 1.84967 0.301159 0
M  V30 3 C -3.53737 1.01883 -0.224932 0
M  V30 4 C -3.12649 -0.228388 -0.655331 0
M  V30 5 C -4.12182 -1.17007 -1.23154 0
M  V30 6 C -1.81545 -0.65359 -0.576703 0
M  V30 7 C -1.4339 -2.00817 -1.05655 0
M  V30 8 C -0.904306 0.236813 -0.0376249 0
M  V30 9 C -1.23567 1.5007 0.414887 0
M  V30 10 C -0.237013 2.43749 0.989737 0
M  V30 11 C 0.461072 -0.186822 0.0521436 0
M  V30 12 C 0.895546 -0.831416 1.18333 0
M  V30 13 N 0.0492164 -1.11789 2.31524 0
M  V30 14 N 2.17263 -1.23661 1.28666 0
M  V30 15 C 3.06617 -1.02798 0.294511 0
M  V30 16 N 4.34406 -1.42858 0.387406 0
M  V30 17 C 5.27644 -1.24945 -0.564476 0
M  V30 18 N 6.61556 -1.69232 -0.417146 0
M  V30 19 N 4.84643 -0.613481 -1.67971 0
M  V30 20 C 3.5892 -0.185451 -1.84443 0
M  V30 21 C 2.66878 -0.383989 -0.857823 0
M  V30 22 C 1.35162 0.0322342 -0.960743 0
M  V30 23 H -2.33396 3.94902 0.279123 0
M  V30 24 H -2.81867 3.25828 1.8551 0
M  V30 25 H -4.02356 3.43233 0.487866 0
M  V30 26 H -4.58583 1.34083 -0.295185 0
M  V30 27 H -3.69 -1.86861 -1.94593 0
M  V30 28 H -4.72903 -1.66924 -0.443633 0
M  V30 29 H -4.85264 -0.532119 -1.80834 0
M  V30 30 H -0.521674 -2.39577 -0.618594 0
M  V30 31 H -1.43976 -2.0659 -2.1814 0
M  V30 32 H -2.25847 -2.71698 -0.74664 0
M  V30 33 H -0.775692 2.94514 1.84973 0
M  V30 34 H 0.622002 1.96438 1.448 0
M  V30 35 H -0.00468528 3.2817 0.307505 0
M  V30 36 H -0.482215 -1.98038 2.42705 0
M  V30 37 H -0.0168782 -0.389819 3.06212 0
M  V30 38 H 7.0805 -2.22082 -1.17718 0
M  V30 39 H 7.10613 -1.47037 0.46849 0
M  V30 40 H 3.27632 0.322445 -2.75357 0
M  V30 41 H 1.08663 0.541194 -1.90116 0
M  V30 END ATOM
M  V30 BEGIN BOND
M  V30 1 1 1 2
M  V30 2 2 2 3
M  V30 3 1 3 4
M  V30 4 1 4 5
M  V30 5 2 4 6
M  V30 6 1 6 7
M  V30 7 1 6 8
M  V30 8 2 8 9
M  V30 9 1 9 10
M  V30 10 1 8 11
M  V30 11 2 11 12
M  V30 12 1 12 13
M  V30 13 1 12 14
M  V30 14 2 14 15
M  V30 15 1 15 16
M  V30 16 2 16 17
M  V30 17 1 17 18
M  V30 18 1 17 19
M  V30 19 2 19 20
M  V30 20 1 20 21
M  V30 21 2 21 22
M  V30 22 1 9 2
M  V30 23 1 22 11
M  V30 24 1 21 15
M  V30 25 1 1 23
M  V30 26 1 1 24
M  V30 27 1 1 25
M  V30 28 1 3 26
M  V30 29 1 5 27
M  V30 30 1 5 28
M  V30 31 1 5 29
M  V30 32 1 7 30
M  V30 33 1 7 31
M  V30 34 1 7 32
M  V30 35 1 10 33
M  V30 36 1 10 34
M  V30 37 1 10 35
M  V30 38 1 13 36
M  V30 39 1 13 37
M  V30 40 1 18 38
M  V30 41 1 18 39
M  V30 42 1 20 40
M  V30 43 1 22 41
M  V30 END BOND
M  V30 END CTAB
M  END
