
     RDKit          3D

  0  0  0  0  0  0  0  0  0  0999 V3000
M  V30 BEGIN CTAB
M  V30 COUNTS 21 22 0 0 0
M  V30 BEGIN ATOM
M  V30 1 N 3.61092 0.19206 -0.334601 0
M  V30 2 C 2.27418 -0.255423 -0.165343 0
M  V30 3 C 1.18808 0.595295 -0.172863 0
M  V30 4 C -0.1111 0.176213 -0.010249 0
M  V30 5 C -0.354166 -1.16985 0.171594 0
M  V30 6 C -1.64161 -1.66873 0.342731 0
M  V30 7 C -2.70337 -0.770026 0.327375 0
M  V30 8 C -2.49967 0.585492 0.147813 0
M  V30 9 C -1.19939 1.01456 -0.0160957 0
M  V30 10 N -0.938443 2.41218 -0.205652 0
M  V30 11 C 0.729066 -2.01566 0.178776 0
M  V30 12 N 2.00247 -1.5673 0.0148971 0
M  V30 13 H 4.43181 -0.260739 0.113556 0
M  V30 14 H 3.80942 1.01871 -0.936578 0
M  V30 15 H 1.38453 1.65465 -0.316423 0
M  V30 16 H -1.76283 -2.72291 0.479152 0
M  V30 17 H -3.6923 -1.16327 0.46002 0
M  V30 18 H -3.34202 1.27717 0.138177 0
M  V30 19 H -1.06871 3.04856 0.606703 0
M  V30 20 H -0.63514 2.69665 -1.14688 0
M  V30 21 H 0.518291 -3.07763 0.323895 0
M  V30 END ATOM
M  V30 BEGIN BOND
M  V30 1 1 1 2
M  V30 2 2 2 3
M  V30 3 1 3 4
M  V30 4 2 4 5
M  V30 5 1 5 6
M  V30 6 2 6 7
M  V30 7 1 7 8
M  V30 8 2 8 9
M  V30 9 1 9 10
M  V30 10 1 5 11
M  V30 11 2 11 12
M  V30 12 1 12 2
M  V30 13 1 9 4
M  V30 14 1 1 13
M  V30 15 1 1 14
M  V30 16 1 3 15
M  V30 17 1 6 16
M  V30 18 1 7 17
M  V30 19 1 8 18
M  V30 20 1 10 19
M  V30 21 1 10 20
M  V30 22 1 11 21
M  V30 END BOND
M  V30 END CTAB
M  END
