
     RDKit          3D

  0  0  0  0  0  0  0  0  0  0999 V3000
M  V30 BEGIN CTAB
M  V30 COUNTS 48 48 0 0 0
M  V30 BEGIN ATOM
M  V30 1 C 3.6433 2.27996 0.239095 0 CFG=2
M  V30 2 C 4.2086 2.12789 -1.16389 0
M  V30 3 N 4.40309 3.26779 0.992515 0
M  V30 4 C 3.77426 0.960707 0.898835 0
M  V30 5 O 4.56322 0.869009 1.879 0
M  V30 6 N 3.08249 -0.196635 0.512045 0
M  V30 7 C 3.1799 -1.50319 1.10667 0
M  V30 8 C 2.73801 -2.48681 0.0304607 0
M  V30 9 C 2.60623 -1.60062 -1.21695 0
M  V30 10 C 2.12823 -0.296038 -0.556649 0 CFG=1
M  V30 11 C 0.737713 -0.469336 -0.0569019 0
M  V30 12 O 0.453305 -0.520517 1.16281 0
M  V30 13 N -0.305063 -0.580778 -0.997009 0
M  V30 14 C -1.69946 -0.753172 -0.59424 0 CFG=1
M  V30 15 C -2.4479 0.428144 -1.11966 0
M  V30 16 C -3.90391 0.4469 -0.810698 0
M  V30 17 C -4.14872 0.445782 0.678442 0
M  V30 18 C -5.65533 0.469162 0.970519 0
M  V30 19 N -5.80227 0.466366 2.41526 0
M  V30 20 C -2.18885 -2.02952 -1.1365 0
M  V30 21 O -3.45849 -2.48847 -0.916074 0
M  V30 22 O -1.40935 -2.73624 -1.83485 0
M  V30 23 H 2.61082 2.64767 0.161568 0
M  V30 24 H 5.15851 2.68844 -1.28054 0
M  V30 25 H 3.44834 2.47331 -1.88556 0
M  V30 26 H 4.44481 1.0729 -1.41143 0
M  V30 27 H 4.70917 4.07231 0.384322 0
M  V30 28 H 5.20621 2.83689 1.50919 0
M  V30 29 H 2.57896 -1.6105 2.03613 0
M  V30 30 H 4.21799 -1.78096 1.37728 0
M  V30 31 H 3.47768 -3.25824 -0.178391 0
M  V30 32 H 1.73954 -2.87324 0.271692 0
M  V30 33 H 3.60074 -1.37563 -1.63866 0
M  V30 34 H 1.88055 -1.99414 -1.92519 0
M  V30 35 H 2.11332 0.526836 -1.26542 0
M  V30 36 H -0.108752 -0.543097 -2.00736 0
M  V30 37 H -1.79174 -0.780002 0.511507 0
M  V30 38 H -2.28989 0.459024 -2.22088 0
M  V30 39 H -1.98663 1.36983 -0.731875 0
M  V30 40 H -4.27768 1.46245 -1.15881 0
M  V30 41 H -4.47682 -0.325282 -1.35595 0
M  V30 42 H -3.68994 -0.444082 1.1155 0
M  V30 43 H -3.66043 1.34592 1.09919 0
M  V30 44 H -6.08109 1.40962 0.565882 0
M  V30 45 H -6.11836 -0.439286 0.546426 0
M  V30 46 H -4.90777 0.169476 2.88592 0
M  V30 47 H -6.51569 -0.248908 2.679 0
M  V30 48 H -3.78084 -2.9617 -0.0827477 0
M  V30 END ATOM
M  V30 BEGIN BOND
M  V30 1 1 1 2
M  V30 2 1 1 3
M  V30 3 1 1 4
M  V30 4 2 4 5
M  V30 5 1 4 6
M  V30 6 1 6 7
M  V30 7 1 7 8
M  V30 8 1 8 9
M  V30 9 1 9 10
M  V30 10 1 10 11
M  V30 11 2 11 12
M  V30 12 1 11 13
M  V30 13 1 13 14
M  V30 14 1 14 15
M  V30 15 1 15 16
M  V30 16 1 16 17
M  V30 17 1 17 18
M  V30 18 1 18 19
M  V30 19 1 14 20
M  V30 20 1 20 21
M  V30 21 2 20 22
M  V30 22 1 10 6
M  V30 23 1 1 23 CFG=3
M  V30 24 1 2 24
M  V30 25 1 2 25
M  V30 26 1 2 26
M  V30 27 1 3 27
M  V30 28 1 3 28
M  V30 29 1 7 29
M  V30 30 1 7 30
M  V30 31 1 8 31
M  V30 32 1 8 32
M  V30 33 1 9 33
M  V30 34 1 9 34
M  V30 35 1 10 35 CFG=3
M  V30 36 1 13 36
M  V30 37 1 14 37 CFG=1
M  V30 38 1 15 38
M  V30 39 1 15 39
M  V30 40 1 16 40
M  V30 41 1 16 41
M  V30 42 1 17 42
M  V30 43 1 17 43
M  V30 44 1 18 44
M  V30 45 1 18 45
M  V30 46 1 19 46
M  V30 47 1 19 47
M  V30 48 1 21 48
M  V30 END BOND
M  V30 END CTAB
M  END
