
     RDKit          3D

  0  0  0  0  0  0  0  0  0  0999 V3000
M  V30 BEGIN CTAB
M  V30 COUNTS 43 45 0 0 0
M  V30 BEGIN ATOM
M  V30 1 N 2.96112 -0.994461 3.00785 0
M  V30 2 C 3.08512 0.240482 2.35691 0
M  V30 3 C 1.9866 0.540924 1.37475 0 CFG=2
M  V30 4 C 0.621818 0.561545 2.08446 0
M  V30 5 N -0.326258 0.299992 1.01939 0
M  V30 6 C 0.330688 -0.343075 -0.0511644 0
M  V30 7 C 1.77069 -0.518859 0.352304 0 CFG=1
M  V30 8 C 2.69579 -0.416372 -0.801795 0
M  V30 9 C 3.49581 -1.48184 -1.15408 0
M  V30 10 C 4.37454 -1.40341 -2.23971 0
M  V30 11 C 4.44759 -0.256598 -2.96798 0
M  V30 12 C 3.65839 0.809118 -2.62866 0
M  V30 13 C 2.78312 0.736774 -1.55053 0
M  V30 14 C -1.68526 0.662472 1.11864 0
M  V30 15 O -2.10781 1.24308 2.20419 0
M  V30 16 C -2.72395 0.461903 0.116844 0
M  V30 17 C -2.65064 -0.0970766 -1.1339 0
M  V30 18 C -3.92698 -0.0593511 -1.7079 0
M  V30 19 C -4.70856 0.523835 -0.768506 0
M  V30 20 O -3.99929 0.817024 0.274668 0
M  V30 21 S -6.42774 0.842466 -0.924577 0
M  V30 22 O -6.68514 2.31306 -0.713623 0
M  V30 23 O -6.91144 0.423085 -2.25887 0
M  V30 24 N -7.3003 0.00446124 0.323941 0
M  V30 25 H 3.7632 -1.57292 3.12134 0
M  V30 26 H 2.11368 -1.47184 2.8313 0
M  V30 27 H 4.08483 0.375872 1.91307 0
M  V30 28 H 3.01805 1.04577 3.14799 0
M  V30 29 H 2.19597 1.5236 0.907257 0
M  V30 30 H 0.448354 1.59923 2.4847 0
M  V30 31 H 0.570895 -0.147521 2.91178 0
M  V30 32 H -0.123951 -1.34319 -0.301974 0
M  V30 33 H 0.268601 0.344509 -0.954512 0
M  V30 34 H 1.85663 -1.52487 0.812837 0
M  V30 35 H 3.43281 -2.38987 -0.571339 0
M  V30 36 H 4.99839 -2.25454 -2.50308 0
M  V30 37 H 5.13786 -0.213688 -3.81031 0
M  V30 38 H 3.73756 1.70478 -3.22364 0
M  V30 39 H 2.16155 1.56281 -1.27585 0
M  V30 40 H -1.79186 -0.506631 -1.63991 0
M  V30 41 H -4.21864 -0.41339 -2.67491 0
M  V30 42 H -7.80245 -0.81505 -0.130508 0
M  V30 43 H -6.60939 -0.412243 1.00629 0
M  V30 END ATOM
M  V30 BEGIN BOND
M  V30 1 1 1 2
M  V30 2 1 2 3
M  V30 3 1 3 4
M  V30 4 1 4 5
M  V30 5 1 5 6
M  V30 6 1 6 7
M  V30 7 1 7 8
M  V30 8 2 8 9
M  V30 9 1 9 10
M  V30 10 2 10 11
M  V30 11 1 11 12
M  V30 12 2 12 13
M  V30 13 1 5 14
M  V30 14 2 14 15
M  V30 15 1 14 16
M  V30 16 2 16 17
M  V30 17 1 17 18
M  V30 18 2 18 19
M  V30 19 1 19 20
M  V30 20 1 19 21
M  V30 21 2 21 22
M  V30 22 2 21 23
M  V30 23 1 21 24
M  V30 24 1 7 3
M  V30 25 1 13 8
M  V30 26 1 20 16
M  V30 27 1 1 25
M  V30 28 1 1 26
M  V30 29 1 2 27
M  V30 30 1 2 28
M  V30 31 1 3 29 CFG=3
M  V30 32 1 4 30
M  V30 33 1 4 31
M  V30 34 1 6 32
M  V30 35 1 6 33
M  V30 36 1 7 34 CFG=1
M  V30 37 1 9 35
M  V30 38 1 10 36
M  V30 39 1 11 37
M  V30 40 1 12 38
M  V30 41 1 13 39
M  V30 42 1 17 40
M  V30 43 1 18 41
M  V30 44 1 24 42
M  V30 45 1 24 43
M  V30 END BOND
M  V30 END CTAB
M  END
