
     RDKit          3D

  0  0  0  0  0  0  0  0  0  0999 V3000
M  V30 BEGIN CTAB
M  V30 COUNTS 25 25 0 0 0
M  V30 BEGIN ATOM
M  V30 1 C -2.78577 -0.839916 0.895479 0
M  V30 2 C -2.33201 -0.548608 -0.511237 0
M  V30 3 C -1.08193 0.26516 -0.554032 0
M  V30 4 C -1.18558 1.6044 -0.864776 0
M  V30 5 C -0.0720545 2.40944 -0.920056 0
M  V30 6 Cl -0.190712 4.09498 -1.31075 0
M  V30 7 C 1.15315 1.83361 -0.654692 0
M  V30 8 C 1.29769 0.503829 -0.341884 0
M  V30 9 C 0.164566 -0.27109 -0.294893 0
M  V30 10 N 0.265898 -1.64818 0.0268757 0
M  V30 11 S 2.88143 -0.144428 -0.0275273 0
M  V30 12 N 2.97645 -0.82598 1.55632 0
M  V30 13 O 3.941 0.938725 -0.156328 0
M  V30 14 O 3.26491 -1.20517 -1.02225 0
M  V30 15 H -1.9818 -1.06482 1.59402 0
M  V30 16 H -3.4317 -1.74685 0.831096 0
M  V30 17 H -3.40192 -0.0126121 1.30853 0
M  V30 18 H -2.09154 -1.52983 -0.974153 0
M  V30 19 H -3.15221 -0.0277083 -1.03396 0
M  V30 20 H -2.16527 2.01594 -1.0661 0
M  V30 21 H 2.06931 2.4335 -0.686376 0
M  V30 22 H 0.186558 -1.91949 1.02855 0
M  V30 23 H 0.415461 -2.33912 -0.735376 0
M  V30 24 H 2.67305 -0.187283 2.3018 0
M  V30 25 H 2.58302 -1.7885 1.61173 0
M  V30 END ATOM
M  V30 BEGIN BOND
M  V30 1 1 1 2
M  V30 2 1 2 3
M  V30 3 2 3 4
M  V30 4 1 4 5
M  V30 5 1 5 6
M  V30 6 2 5 7
M  V30 7 1 7 8
M  V30 8 2 8 9
M  V30 9 1 9 10
M  V30 10 1 8 11
M  V30 11 1 11 12
M  V30 12 2 11 13
M  V30 13 2 11 14
M  V30 14 1 9 3
M  V30 15 1 1 15
M  V30 16 1 1 16
M  V30 17 1 1 17
M  V30 18 1 2 18
M  V30 19 1 2 19
M  V30 20 1 4 20
M  V30 21 1 7 21
M  V30 22 1 10 22
M  V30 23 1 10 23
M  V30 24 1 12 24
M  V30 25 1 12 25
M  V30 END BOND
M  V30 END CTAB
M  END
