
     RDKit          3D

  0  0  0  0  0  0  0  0  0  0999 V3000
M  V30 BEGIN CTAB
M  V30 COUNTS 49 52 0 0 0
M  V30 BEGIN ATOM
M  V30 1 Cl 6.75508 0.362323 5.13082 0
M  V30 2 C 5.53028 0.177222 3.88993 0
M  V30 3 C 5.78513 0.379842 2.55669 0
M  V30 4 C 4.78571 0.220396 1.61936 0
M  V30 5 C 3.50263 -0.143208 1.95802 0
M  V30 6 C 3.25095 -0.34592 3.29899 0
M  V30 7 C 4.23841 -0.191956 4.25917 0
M  V30 8 C 2.46472 -0.302792 0.914406 0
M  V30 9 N 1.24846 -0.62466 1.07489 0
M  V30 10 N 0.553852 -0.682989 -0.130158 0
M  V30 11 C 1.50586 -0.596489 -1.1829 0
M  V30 12 C 2.74121 -0.0885641 -0.513796 0
M  V30 13 C 1.7071 -1.85631 -1.92285 0
M  V30 14 C 1.76446 -1.9379 -3.29595 0
M  V30 15 C 1.96333 -3.28173 -3.63666 0
M  V30 16 C 2.01398 -3.93116 -2.41091 0
M  V30 17 O 1.85849 -3.04903 -1.44476 0
M  V30 18 C -0.871733 -0.815522 -0.191833 0
M  V30 19 O -1.53795 -0.870995 0.873499 0
M  V30 20 C -1.61659 -0.893063 -1.47189 0
M  V30 21 S -3.36943 -1.20717 -1.21981 0
M  V30 22 C -4.22003 0.160093 -0.437048 0
M  V30 23 N -4.77679 1.14363 -1.16465 0
M  V30 24 C -5.42704 2.18861 -0.664289 0
M  V30 25 N -5.9802 3.16257 -1.51655 0
M  V30 26 C -5.54164 2.27503 0.707537 0
M  V30 27 C -4.96639 1.25966 1.44986 0
M  V30 28 N -4.32152 0.227555 0.892179 0
M  V30 29 N -5.09832 1.36696 2.88478 0
M  V30 30 C -1.46127 0.385878 -2.27029 0
M  V30 31 H 6.77884 0.663399 2.26381 0
M  V30 32 H 5.02173 0.38783 0.572238 0
M  V30 33 H 2.24885 -0.631 3.57852 0
M  V30 34 H 4.051 -0.349861 5.30857 0
M  V30 35 H 1.17526 0.229249 -1.86761 0
M  V30 36 H 2.96726 0.974977 -0.753978 0
M  V30 37 H 3.60346 -0.749622 -0.816765 0
M  V30 38 H 1.67746 -1.15098 -4.01248 0
M  V30 39 H 2.04947 -3.66873 -4.63769 0
M  V30 40 H 2.15894 -4.99441 -2.30164 0
M  V30 41 H -1.21771 -1.71557 -2.09777 0
M  V30 42 H -5.80233 4.17013 -1.32091 0
M  V30 43 H -6.57282 2.94516 -2.35458 0
M  V30 44 H -6.06272 3.10519 1.17804 0
M  V30 45 H -5.28223 0.506431 3.43763 0
M  V30 46 H -5.00434 2.30465 3.32003 0
M  V30 47 H -0.827656 0.201548 -3.16003 0
M  V30 48 H -0.993322 1.19184 -1.68198 0
M  V30 49 H -2.44989 0.686462 -2.6892 0
M  V30 END ATOM
M  V30 BEGIN BOND
M  V30 1 1 1 2
M  V30 2 2 2 3
M  V30 3 1 3 4
M  V30 4 2 4 5
M  V30 5 1 5 6
M  V30 6 2 6 7
M  V30 7 1 5 8
M  V30 8 2 8 9
M  V30 9 1 9 10
M  V30 10 1 10 11
M  V30 11 1 11 12
M  V30 12 1 11 13
M  V30 13 2 13 14
M  V30 14 1 14 15
M  V30 15 2 15 16
M  V30 16 1 16 17
M  V30 17 1 10 18
M  V30 18 2 18 19
M  V30 19 1 18 20
M  V30 20 1 20 21
M  V30 21 1 21 22
M  V30 22 2 22 23
M  V30 23 1 23 24
M  V30 24 1 24 25
M  V30 25 2 24 26
M  V30 26 1 26 27
M  V30 27 2 27 28
M  V30 28 1 27 29
M  V30 29 1 20 30
M  V30 30 1 7 2
M  V30 31 1 12 8
M  V30 32 1 17 13
M  V30 33 1 28 22
M  V30 34 1 3 31
M  V30 35 1 4 32
M  V30 36 1 6 33
M  V30 37 1 7 34
M  V30 38 1 11 35
M  V30 39 1 12 36
M  V30 40 1 12 37
M  V30 41 1 14 38
M  V30 42 1 15 39
M  V30 43 1 16 40
M  V30 44 1 20 41
M  V30 45 1 25 42
M  V30 46 1 25 43
M  V30 47 1 26 44
M  V30 48 1 29 45
M  V30 49 1 29 46
M  V30 50 1 30 47
M  V30 51 1 30 48
M  V30 52 1 30 49
M  V30 END BOND
M  V30 END CTAB
M  END
