
     RDKit          3D

  0  0  0  0  0  0  0  0  0  0999 V3000
M  V30 BEGIN CTAB
M  V30 COUNTS 36 37 0 0 0
M  V30 BEGIN ATOM
M  V30 1 O -0.550527 0.766487 1.10939 0
M  V30 2 C -0.412575 -0.347004 1.63199 0
M  V30 3 N 0.727119 -1.12797 1.48019 0
M  V30 4 C 1.90077 -0.861941 0.752001 0
M  V30 5 C 3.00571 -1.70862 0.883394 0
M  V30 6 C 4.18234 -1.54494 0.217882 0
M  V30 7 C 4.31495 -0.482012 -0.646822 0
M  V30 8 C 3.26205 0.370379 -0.806629 0
M  V30 9 C 2.06013 0.18677 -0.114499 0
M  V30 10 S 5.83851 -0.21165 -1.55109 0
M  V30 11 C 6.93457 0.858719 -0.568108 0
M  V30 12 F 7.35483 0.242421 0.587566 0
M  V30 13 F 6.32357 2.05224 -0.286862 0
M  V30 14 C -1.55284 -0.850964 2.46649 0
M  V30 15 S -2.90437 0.340496 2.51333 0
M  V30 16 C -3.60254 0.481813 0.865349 0
M  V30 17 N -4.63558 1.31162 0.61487 0
M  V30 18 C -5.2003 1.46463 -0.581532 0
M  V30 19 N -6.28915 2.34432 -0.828655 0
M  V30 20 C -4.69104 0.724343 -1.6257 0
M  V30 21 C -3.61913 -0.154163 -1.42802 0
M  V30 22 N -3.1274 -0.227136 -0.173808 0
M  V30 23 N -3.10074 -0.91095 -2.50122 0
M  V30 24 H 0.714646 -2.08463 1.99177 0
M  V30 25 H 2.91804 -2.54056 1.5541 0
M  V30 26 H 5.03217 -2.21233 0.331295 0
M  V30 27 H 3.34456 1.21642 -1.48398 0
M  V30 28 H 1.26268 0.905228 -0.29815 0
M  V30 29 H 7.83437 1.05411 -1.22556 0
M  V30 30 H -1.85964 -1.84468 2.08401 0
M  V30 31 H -1.17066 -1.02666 3.5031 0
M  V30 32 H -7.28577 2.03987 -0.802251 0
M  V30 33 H -6.09531 3.34066 -1.04705 0
M  V30 34 H -5.09223 0.790983 -2.62251 0
M  V30 35 H -2.59461 -0.425492 -3.25761 0
M  V30 36 H -3.22659 -1.92979 -2.52737 0
M  V30 END ATOM
M  V30 BEGIN BOND
M  V30 1 2 1 2
M  V30 2 1 2 3
M  V30 3 1 3 4
M  V30 4 2 4 5
M  V30 5 1 5 6
M  V30 6 2 6 7
M  V30 7 1 7 8
M  V30 8 2 8 9
M  V30 9 1 7 10
M  V30 10 1 10 11
M  V30 11 1 11 12
M  V30 12 1 11 13
M  V30 13 1 2 14
M  V30 14 1 14 15
M  V30 15 1 15 16
M  V30 16 2 16 17
M  V30 17 1 17 18
M  V30 18 1 18 19
M  V30 19 2 18 20
M  V30 20 1 20 21
M  V30 21 2 21 22
M  V30 22 1 21 23
M  V30 23 1 9 4
M  V30 24 1 22 16
M  V30 25 1 3 24
M  V30 26 1 5 25
M  V30 27 1 6 26
M  V30 28 1 8 27
M  V30 29 1 9 28
M  V30 30 1 11 29
M  V30 31 1 14 30
M  V30 32 1 14 31
M  V30 33 1 19 32
M  V30 34 1 19 33
M  V30 35 1 20 34
M  V30 36 1 23 35
M  V30 37 1 23 36
M  V30 END BOND
M  V30 END CTAB
M  END
