
     RDKit          3D

  0  0  0  0  0  0  0  0  0  0999 V3000
M  V30 BEGIN CTAB
M  V30 COUNTS 18 18 0 0 0
M  V30 BEGIN ATOM
M  V30 1 N 2.49558 0.426241 0.430055 0
M  V30 2 C 1.40015 0.286445 -0.443422 0
M  V30 3 C -0.0461474 0.209144 0.0418607 0
M  V30 4 C -0.676125 -0.933221 -0.187819 0
M  V30 5 N 0.133899 -2.13339 -0.411819 0
M  V30 6 C -2.05215 -0.928444 -0.087763 0
M  V30 7 N -2.7157 0.245197 0.260401 0
M  V30 8 C -2.12508 1.40008 0.529552 0
M  V30 9 C -0.734101 1.33643 0.397921 0
M  V30 10 H 2.31799 0.676391 1.34342 0
M  V30 11 H 3.39992 0.539415 0.0833241 0
M  V30 12 H 1.34923 1.43298 -0.912726 0
M  V30 13 H 1.59603 -0.191161 -1.45894 0
M  V30 14 H -0.0732155 -2.8622 -0.973002 0
M  V30 15 H 1.03606 -2.15874 0.185036 0
M  V30 16 H -2.54811 -1.85175 -0.312716 0
M  V30 17 H -2.65974 2.3379 0.776722 0
M  V30 18 H -0.0984876 2.16868 0.739909 0
M  V30 END ATOM
M  V30 BEGIN BOND
M  V30 1 1 1 2
M  V30 2 1 2 3
M  V30 3 2 3 4
M  V30 4 1 4 5
M  V30 5 1 4 6
M  V30 6 2 6 7
M  V30 7 1 7 8
M  V30 8 2 8 9
M  V30 9 1 9 3
M  V30 10 1 1 10
M  V30 11 1 1 11
M  V30 12 1 2 12
M  V30 13 1 2 13
M  V30 14 1 5 14
M  V30 15 1 5 15
M  V30 16 1 6 16
M  V30 17 1 8 17
M  V30 18 1 9 18
M  V30 END BOND
M  V30 END CTAB
M  END
