
     RDKit          3D

  0  0  0  0  0  0  0  0  0  0999 V3000
M  V30 BEGIN CTAB
M  V30 COUNTS 31 30 0 0 0
M  V30 BEGIN ATOM
M  V30 1 N 3.68672 2.04809 1.52726 0
M  V30 2 C 2.78192 1.39208 0.60249 0
M  V30 3 C 2.13207 0.191242 1.26583 0
M  V30 4 N 1.22727 -0.488203 0.38381 0
M  V30 5 C 1.68846 -1.5269 -0.437415 0
M  V30 6 S 0.691703 -2.32046 -1.45044 0
M  V30 7 N 3.05474 -1.9035 -0.392455 0
M  V30 8 C -0.128305 -0.11104 0.342426 0
M  V30 9 O -0.524786 0.819943 1.08317 0
M  V30 10 O -1.07086 -0.709174 -0.475607 0
M  V30 11 C -2.40746 -0.254957 -0.440733 0
M  V30 12 C -3.25023 -1.06535 -1.42531 0
M  V30 13 C -2.52667 1.19106 -0.821245 0
M  V30 14 C -3.03127 -0.453396 0.926279 0
M  V30 15 H 4.6602 1.69912 1.38324 0
M  V30 16 H 3.65442 3.08078 1.30409 0
M  V30 17 H 2.0421 2.08419 0.190003 0
M  V30 18 H 3.40286 1.03692 -0.25771 0
M  V30 19 H 1.54256 0.592108 2.11894 0
M  V30 20 H 2.90701 -0.523249 1.60677 0
M  V30 21 H 3.57987 -2.09269 0.489549 0
M  V30 22 H 3.62182 -2.01307 -1.28303 0
M  V30 23 H -2.65303 -1.43449 -2.26596 0
M  V30 24 H -3.69315 -1.9459 -0.920117 0
M  V30 25 H -4.1044 -0.460013 -1.81167 0
M  V30 26 H -2.60219 1.87363 0.0457971 0
M  V30 27 H -3.44805 1.3463 -1.4189 0
M  V30 28 H -1.68428 1.51783 -1.46663 0
M  V30 29 H -3.84811 -1.2079 0.914838 0
M  V30 30 H -2.246 -0.861425 1.61689 0
M  V30 31 H -3.45492 0.498427 1.31859 0
M  V30 END ATOM
M  V30 BEGIN BOND
M  V30 1 1 1 2
M  V30 2 1 2 3
M  V30 3 1 3 4
M  V30 4 1 4 5
M  V30 5 2 5 6
M  V30 6 1 5 7
M  V30 7 1 4 8
M  V30 8 2 8 9
M  V30 9 1 8 10
M  V30 10 1 10 11
M  V30 11 1 11 12
M  V30 12 1 11 13
M  V30 13 1 11 14
M  V30 14 1 1 15
M  V30 15 1 1 16
M  V30 16 1 2 17
M  V30 17 1 2 18
M  V30 18 1 3 19
M  V30 19 1 3 20
M  V30 20 1 7 21
M  V30 21 1 7 22
M  V30 22 1 12 23
M  V30 23 1 12 24
M  V30 24 1 12 25
M  V30 25 1 13 26
M  V30 26 1 13 27
M  V30 27 1 13 28
M  V30 28 1 14 29
M  V30 29 1 14 30
M  V30 30 1 14 31
M  V30 END BOND
M  V30 END CTAB
M  END
