
     RDKit          3D

  0  0  0  0  0  0  0  0  0  0999 V3000
M  V30 BEGIN CTAB
M  V30 COUNTS 32 31 0 0 0
M  V30 BEGIN ATOM
M  V30 1 C -4.04988 0.419542 2.4756 0
M  V30 2 O -3.0893 -0.0868418 1.5739 0
M  V30 3 C -2.93392 0.335551 0.281664 0
M  V30 4 O -3.68957 1.23695 -0.152486 0
M  V30 5 C -1.89389 -0.253435 -0.602032 0 CFG=1
M  V30 6 N -1.98348 0.395209 -1.88553 0
M  V30 7 C -0.531048 -0.177076 0.00326183 0
M  V30 8 C 0.512529 -0.780586 -0.883097 0
M  V30 9 C 0.67629 -0.148038 -2.22199 0
M  V30 10 C 1.84896 -0.857313 -0.158697 0
M  V30 11 N 2.29504 0.459877 0.231971 0
M  V30 12 C 3.50845 0.683309 0.926644 0
M  V30 13 N 4.74063 0.53966 0.217211 0
M  V30 14 N 3.54305 1.00877 2.16514 0
M  V30 15 H -4.25096 1.47502 2.34898 0
M  V30 16 H -3.64745 0.267567 3.50839 0
M  V30 17 H -4.97143 -0.159929 2.32959 0
M  V30 18 H -2.10262 -1.34415 -0.789613 0
M  V30 19 H -2.18092 1.4091 -1.73604 0
M  V30 20 H -2.7057 -0.088015 -2.45414 0
M  V30 21 H -0.265814 0.858844 0.326934 0
M  V30 22 H -0.510759 -0.786265 0.956387 0
M  V30 23 H 0.214601 -1.8675 -1.01446 0
M  V30 24 H 0.469933 0.946581 -2.25109 0
M  V30 25 H 0.0607323 -0.654065 -2.98674 0
M  V30 26 H 1.73572 -0.261626 -2.60917 0
M  V30 27 H 1.81685 -1.56921 0.677331 0
M  V30 28 H 2.57406 -1.27055 -0.915243 0
M  V30 29 H 1.69574 1.27368 -0.0108109 0
M  V30 30 H 4.78516 0.658909 -0.808307 0
M  V30 31 H 5.63076 0.311181 0.706751 0
M  V30 32 H 2.69824 1.13293 2.74971 0
M  V30 END ATOM
M  V30 BEGIN BOND
M  V30 1 1 1 2
M  V30 2 1 2 3
M  V30 3 2 3 4
M  V30 4 1 3 5
M  V30 5 1 5 6
M  V30 6 1 5 7
M  V30 7 1 7 8
M  V30 8 1 8 9
M  V30 9 1 8 10
M  V30 10 1 10 11
M  V30 11 1 11 12
M  V30 12 1 12 13
M  V30 13 2 12 14 CFG=2
M  V30 14 1 1 15
M  V30 15 1 1 16
M  V30 16 1 1 17
M  V30 17 1 5 18 CFG=3
M  V30 18 1 6 19
M  V30 19 1 6 20
M  V30 20 1 7 21
M  V30 21 1 7 22
M  V30 22 1 8 23
M  V30 23 1 9 24
M  V30 24 1 9 25
M  V30 25 1 9 26
M  V30 26 1 10 27
M  V30 27 1 10 28
M  V30 28 1 11 29
M  V30 29 1 13 30
M  V30 30 1 13 31
M  V30 31 1 14 32
M  V30 END BOND
M  V30 END CTAB
M  END
