
     RDKit          3D

  0  0  0  0  0  0  0  0  0  0999 V3000
M  V30 BEGIN CTAB
M  V30 COUNTS 34 35 0 0 0
M  V30 BEGIN ATOM
M  V30 1 C -3.46009 1.16809 -1.41919 0
M  V30 2 N -3.5674 0.223991 -0.361534 0
M  V30 3 C -4.89032 -0.152757 0.00142284 0
M  V30 4 S -2.46212 -1.08103 -0.461848 0
M  V30 5 O -2.17011 -1.5427 -1.83024 0
M  V30 6 O -3.06651 -2.25404 0.292198 0
M  V30 7 N -1.02596 -0.61938 0.388018 0
M  V30 8 C -1.00179 -0.323166 1.72264 0
M  V30 9 N -2.14413 -0.358173 2.57325 0
M  V30 10 N 0.254509 -0.00748703 2.05604 0
M  V30 11 C 1.02001 -0.10544 0.930037 0
M  V30 12 C 0.211865 -0.490228 -0.116499 0
M  V30 13 C 0.756617 -0.658202 -1.37088 0
M  V30 14 C 2.10544 -0.435145 -1.54581 0
M  V30 15 C 2.94 -0.0444348 -0.495129 0
M  V30 16 C 2.36903 0.11401 0.738445 0
M  V30 17 C 4.35894 0.183505 -0.709577 0
M  V30 18 O 4.812 0.0121362 -1.88995 0
M  V30 19 N 5.23457 0.579902 0.322728 0
M  V30 20 N 6.59954 0.797733 0.109946 0
M  V30 21 H -3.90396 0.844763 -2.37214 0
M  V30 22 H -3.96957 2.10428 -1.10756 0
M  V30 23 H -2.39273 1.42322 -1.55529 0
M  V30 24 H -5.5719 -0.360155 -0.832508 0
M  V30 25 H -5.31505 0.599789 0.726148 0
M  V30 26 H -4.83001 -1.10044 0.608662 0
M  V30 27 H -2.54092 -1.25108 2.92255 0
M  V30 28 H -2.58517 0.540119 2.84593 0
M  V30 29 H 0.140948 -0.957961 -2.20312 0
M  V30 30 H 2.5931 -0.551434 -2.51226 0
M  V30 31 H 2.92888 0.41082 1.60242 0
M  V30 32 H 4.88607 0.724578 1.28909 0
M  V30 33 H 6.94818 1.63255 0.643637 0
M  V30 34 H 6.73803 0.933772 -0.916015 0
M  V30 END ATOM
M  V30 BEGIN BOND
M  V30 1 1 1 2
M  V30 2 1 2 3
M  V30 3 1 2 4
M  V30 4 2 4 5
M  V30 5 2 4 6
M  V30 6 1 4 7
M  V30 7 1 7 8
M  V30 8 1 8 9
M  V30 9 2 8 10
M  V30 10 1 10 11
M  V30 11 2 11 12
M  V30 12 1 12 13
M  V30 13 2 13 14
M  V30 14 1 14 15
M  V30 15 2 15 16
M  V30 16 1 15 17
M  V30 17 2 17 18
M  V30 18 1 17 19
M  V30 19 1 19 20
M  V30 20 1 12 7
M  V30 21 1 16 11
M  V30 22 1 1 21
M  V30 23 1 1 22
M  V30 24 1 1 23
M  V30 25 1 3 24
M  V30 26 1 3 25
M  V30 27 1 3 26
M  V30 28 1 9 27
M  V30 29 1 9 28
M  V30 30 1 13 29
M  V30 31 1 14 30
M  V30 32 1 16 31
M  V30 33 1 19 32
M  V30 34 1 20 33
M  V30 35 1 20 34
M  V30 END BOND
M  V30 END CTAB
M  END
