
     RDKit          3D

  0  0  0  0  0  0  0  0  0  0999 V3000
M  V30 BEGIN CTAB
M  V30 COUNTS 31 31 0 0 0
M  V30 BEGIN ATOM
M  V30 1 C 4.55927 -0.575563 0.150573 0
M  V30 2 C 3.25817 -1.25105 -0.108759 0
M  V30 3 O 2.12345 -0.521039 0.239238 0
M  V30 4 C 1.76736 0.714178 -0.279882 0
M  V30 5 O 2.54973 1.19758 -1.13644 0
M  V30 6 C 0.583022 1.47714 0.0831136 0
M  V30 7 C 0.71529 1.91271 1.55836 0
M  V30 8 C -0.698419 0.828463 -0.16423 0
M  V30 9 C -1.05896 -0.404336 0.375213 0
M  V30 10 C -2.29137 -0.959788 0.0976452 0
M  V30 11 N -2.67292 -2.23141 0.649373 0
M  V30 12 C -3.21132 -0.332154 -0.71393 0
M  V30 13 N -4.46894 -0.945088 -0.970423 0
M  V30 14 C -2.85761 0.896127 -1.25408 0
M  V30 15 C -1.6187 1.45455 -0.975074 0
M  V30 16 H 5.00031 -0.853119 1.15047 0
M  V30 17 H 5.30059 -0.954864 -0.598049 0
M  V30 18 H 4.55285 0.511307 0.117958 0
M  V30 19 H 3.24632 -2.19472 0.502548 0
M  V30 20 H 3.22788 -1.60638 -1.17616 0
M  V30 21 H 0.599603 2.43811 -0.466206 0
M  V30 22 H 1.77388 1.99162 1.82652 0
M  V30 23 H 0.14418 1.18136 2.15707 0
M  V30 24 H 0.260798 2.91403 1.71121 0
M  V30 25 H -0.337543 -0.897292 1.01209 0
M  V30 26 H -2.83504 -3.04064 0.042315 0
M  V30 27 H -2.77111 -2.27247 1.68684 0
M  V30 28 H -4.9281 -1.5435 -0.263232 0
M  V30 29 H -4.91219 -0.762595 -1.91272 0
M  V30 30 H -3.57035 1.40236 -1.89443 0
M  V30 31 H -1.43014 2.42648 -1.44693 0
M  V30 END ATOM
M  V30 BEGIN BOND
M  V30 1 1 1 2
M  V30 2 1 2 3
M  V30 3 1 3 4
M  V30 4 2 4 5
M  V30 5 1 4 6
M  V30 6 1 6 7
M  V30 7 1 6 8
M  V30 8 2 8 9
M  V30 9 1 9 10
M  V30 10 1 10 11
M  V30 11 2 10 12
M  V30 12 1 12 13
M  V30 13 1 12 14
M  V30 14 2 14 15
M  V30 15 1 15 8
M  V30 16 1 1 16
M  V30 17 1 1 17
M  V30 18 1 1 18
M  V30 19 1 2 19
M  V30 20 1 2 20
M  V30 21 1 6 21
M  V30 22 1 7 22
M  V30 23 1 7 23
M  V30 24 1 7 24
M  V30 25 1 9 25
M  V30 26 1 11 26
M  V30 27 1 11 27
M  V30 28 1 13 28
M  V30 29 1 13 29
M  V30 30 1 14 30
M  V30 31 1 15 31
M  V30 END BOND
M  V30 END CTAB
M  END
