
     RDKit          3D

  0  0  0  0  0  0  0  0  0  0999 V3000
M  V30 BEGIN CTAB
M  V30 COUNTS 20 21 0 0 0
M  V30 BEGIN ATOM
M  V30 1 N 3.65119 -0.19217 -0.318209 0
M  V30 2 C 2.24533 -0.0355456 -0.174623 0
M  V30 3 N 1.74136 1.1696 0.181513 0
M  V30 4 C 0.42792 1.38466 0.333879 0
M  V30 5 N -0.0237982 2.67303 0.708287 0
M  V30 6 C -0.44505 0.338917 0.119959 0
M  V30 7 C -1.80887 0.509812 0.264266 0
M  V30 8 C -2.62867 -0.571353 0.0370909 0
M  V30 9 C -2.13198 -1.79844 -0.324335 0
M  V30 10 Br -3.3067 -3.29291 -0.63534 0
M  V30 11 C -0.776536 -1.98632 -0.472535 0
M  V30 12 C 0.0524313 -0.907636 -0.246684 0
M  V30 13 N 1.38073 -1.03733 -0.377494 0
M  V30 14 H 4.23182 0.401128 -0.940191 0
M  V30 15 H 4.12679 -0.948628 0.2348 0
M  V30 16 H -0.0376146 2.93791 1.71097 0
M  V30 17 H -0.332901 3.32756 -0.0337813 0
M  V30 18 H -2.22167 1.48725 0.553405 0
M  V30 19 H -3.7163 -0.492147 0.137038 0
M  V30 20 H -0.427481 -2.9674 -0.758013 0
M  V30 END ATOM
M  V30 BEGIN BOND
M  V30 1 1 1 2
M  V30 2 2 2 3
M  V30 3 1 3 4
M  V30 4 1 4 5
M  V30 5 2 4 6
M  V30 6 1 6 7
M  V30 7 2 7 8
M  V30 8 1 8 9
M  V30 9 1 9 10
M  V30 10 2 9 11
M  V30 11 1 11 12
M  V30 12 2 12 13
M  V30 13 1 13 2
M  V30 14 1 12 6
M  V30 15 1 1 14
M  V30 16 1 1 15
M  V30 17 1 5 16
M  V30 18 1 5 17
M  V30 19 1 7 18
M  V30 20 1 8 19
M  V30 21 1 11 20
M  V30 END BOND
M  V30 END CTAB
M  END
