
     RDKit          3D

  0  0  0  0  0  0  0  0  0  0999 V3000
M  V30 BEGIN CTAB
M  V30 COUNTS 30 31 0 0 0
M  V30 BEGIN ATOM
M  V30 1 O 4.31809 -0.700649 1.4499 0
M  V30 2 C 4.22731 -0.79822 0.0677364 0
M  V30 3 C 3.55359 0.462086 -0.452616 0
M  V30 4 N 2.20916 0.586644 0.131503 0
M  V30 5 N 1.88692 1.20335 1.25618 0
M  V30 6 C 0.568524 1.11712 1.47933 0
M  V30 7 C 0.0536404 0.402683 0.424229 0
M  V30 8 C 1.10679 0.0896409 -0.394848 0
M  V30 9 N 1.0743 -0.64691 -1.62156 0
M  V30 10 C -1.35046 0.0264726 0.184647 0
M  V30 11 C -1.61378 -1.24822 -0.207768 0
M  V30 12 C -2.91489 -1.64415 -0.443449 0
M  V30 13 C -3.95313 -0.749447 -0.282154 0
M  V30 14 C -3.68802 0.547766 0.116929 0
M  V30 15 C -2.38037 0.921674 0.346863 0
M  V30 16 N -4.76199 1.45484 0.278442 0
M  V30 17 H 4.46392 0.261824 1.66489 0
M  V30 18 H 5.24243 -0.809732 -0.398047 0
M  V30 19 H 3.65433 -1.71202 -0.17946 0
M  V30 20 H 3.45656 0.467655 -1.54719 0
M  V30 21 H 4.16412 1.31946 -0.137836 0
M  V30 22 H -0.00720998 1.52321 2.32135 0
M  V30 23 H 1.3531 -1.64966 -1.58088 0
M  V30 24 H 0.780551 -0.162296 -2.48318 0
M  V30 25 H -0.843925 -1.99095 -0.350251 0
M  V30 26 H -3.11089 -2.67683 -0.759755 0
M  V30 27 H -4.96232 -1.09703 -0.476638 0
M  V30 28 H -2.16374 1.93957 0.660823 0
M  V30 29 H -5.32755 1.38587 1.16837 0
M  V30 30 H -5.03503 2.17625 -0.403148 0
M  V30 END ATOM
M  V30 BEGIN BOND
M  V30 1 1 1 2
M  V30 2 1 2 3
M  V30 3 1 3 4
M  V30 4 1 4 5
M  V30 5 2 5 6
M  V30 6 1 6 7
M  V30 7 2 7 8
M  V30 8 1 8 9
M  V30 9 1 7 10
M  V30 10 2 10 11
M  V30 11 1 11 12
M  V30 12 2 12 13
M  V30 13 1 13 14
M  V30 14 2 14 15
M  V30 15 1 14 16
M  V30 16 1 8 4
M  V30 17 1 15 10
M  V30 18 1 1 17
M  V30 19 1 2 18
M  V30 20 1 2 19
M  V30 21 1 3 20
M  V30 22 1 3 21
M  V30 23 1 6 22
M  V30 24 1 9 23
M  V30 25 1 9 24
M  V30 26 1 11 25
M  V30 27 1 12 26
M  V30 28 1 13 27
M  V30 29 1 15 28
M  V30 30 1 16 29
M  V30 31 1 16 30
M  V30 END BOND
M  V30 END CTAB
M  END
