
     RDKit          3D

  0  0  0  0  0  0  0  0  0  0999 V3000
M  V30 BEGIN CTAB
M  V30 COUNTS 48 50 0 0 0
M  V30 BEGIN ATOM
M  V30 1 N 7.62798 1.1311 -0.465886 0
M  V30 2 C 6.28085 1.56485 -0.242549 0
M  V30 3 C 5.55429 0.80834 0.876392 0
M  V30 4 C 4.3048 0.90569 -0.00606613 0
M  V30 5 C 5.24903 0.949875 -1.19664 0
M  V30 6 C 3.42641 -0.272995 0.0523028 0
M  V30 7 C 2.08408 -0.0769065 0.303463 0
M  V30 8 C 1.22588 -1.13878 0.367769 0
M  V30 9 N -0.155391 -0.909798 0.628428 0
M  V30 10 C -0.650155 0.437166 0.824349 0
M  V30 11 C -2.13969 0.428521 1.07986 0
M  V30 12 C -2.85642 -0.180372 -0.101046 0
M  V30 13 C -4.31433 -0.21181 0.0981752 0
M  V30 14 C -4.87809 -1.31409 0.693127 0
M  V30 15 C -6.24615 -1.32165 0.869628 0
M  V30 16 C -7.02685 -0.262501 0.465103 0
M  V30 17 C -6.46896 0.849765 -0.133848 0
M  V30 18 C -5.10171 0.843536 -0.303698 0
M  V30 19 C -7.32893 1.99287 -0.568258 0
M  V30 20 N 1.73524 -2.3625 0.17927 0
M  V30 21 C 3.04408 -2.59295 -0.0688061 0
M  V30 22 N 3.86426 -1.51106 -0.124827 0
M  V30 23 N 3.5439 -3.90185 -0.262544 0
M  V30 24 H 7.66371 0.270822 -1.08249 0
M  V30 25 H 8.15316 1.91991 -0.895874 0
M  V30 26 H 6.20059 2.65583 -0.145381 0
M  V30 27 H 5.47409 1.39445 1.79906 0
M  V30 28 H 5.96174 -0.209044 0.961817 0
M  V30 29 H 3.8213 1.86731 0.156761 0
M  V30 30 H 5.62854 -0.0569584 -1.49544 0
M  V30 31 H 4.94207 1.60201 -2.01646 0
M  V30 32 H 1.68764 0.935565 0.45504 0
M  V30 33 H -0.792352 -1.72011 0.675023 0
M  V30 34 H -0.160952 0.869554 1.7327 0
M  V30 35 H -0.471985 1.09466 -0.0463446 0
M  V30 36 H -2.30829 -0.254513 1.95178 0
M  V30 37 H -2.48089 1.4394 1.29736 0
M  V30 38 H -2.5214 -1.21978 -0.273 0
M  V30 39 H -2.62399 0.411406 -1.01328 0
M  V30 40 H -4.31912 -2.17647 1.0322 0
M  V30 41 H -6.70942 -2.17252 1.33242 0
M  V30 42 H -8.0962 -0.306047 0.620949 0
M  V30 43 H -4.66122 1.72885 -0.779974 0
M  V30 44 H -6.85234 2.60294 -1.33924 0
M  V30 45 H -8.31976 1.59107 -0.83696 0
M  V30 46 H -7.47052 2.65631 0.332038 0
M  V30 47 H 4.2773 -4.06566 -0.977092 0
M  V30 48 H 3.20417 -4.71343 0.285804 0
M  V30 END ATOM
M  V30 BEGIN BOND
M  V30 1 1 1 2
M  V30 2 1 2 3
M  V30 3 1 3 4
M  V30 4 1 4 5
M  V30 5 1 4 6
M  V30 6 2 6 7
M  V30 7 1 7 8
M  V30 8 1 8 9
M  V30 9 1 9 10
M  V30 10 1 10 11
M  V30 11 1 11 12
M  V30 12 1 12 13
M  V30 13 2 13 14
M  V30 14 1 14 15
M  V30 15 2 15 16
M  V30 16 1 16 17
M  V30 17 2 17 18
M  V30 18 1 17 19
M  V30 19 2 8 20
M  V30 20 1 20 21
M  V30 21 2 21 22
M  V30 22 1 21 23
M  V30 23 1 5 2
M  V30 24 1 22 6
M  V30 25 1 18 13
M  V30 26 1 1 24
M  V30 27 1 1 25
M  V30 28 1 2 26
M  V30 29 1 3 27
M  V30 30 1 3 28
M  V30 31 1 4 29
M  V30 32 1 5 30
M  V30 33 1 5 31
M  V30 34 1 7 32
M  V30 35 1 9 33
M  V30 36 1 10 34
M  V30 37 1 10 35
M  V30 38 1 11 36
M  V30 39 1 11 37
M  V30 40 1 12 38
M  V30 41 1 12 39
M  V30 42 1 14 40
M  V30 43 1 15 41
M  V30 44 1 16 42
M  V30 45 1 18 43
M  V30 46 1 19 44
M  V30 47 1 19 45
M  V30 48 1 19 46
M  V30 49 1 23 47
M  V30 50 1 23 48
M  V30 END BOND
M  V30 END CTAB
M  END
