
     RDKit          3D

  0  0  0  0  0  0  0  0  0  0999 V3000
M  V30 BEGIN CTAB
M  V30 COUNTS 27 28 0 0 0
M  V30 BEGIN ATOM
M  V30 1 N 5.35981 -1.07353 -0.681336 0
M  V30 2 N 4.00687 -1.35252 -0.700968 0
M  V30 3 C 3.07752 -0.341226 -0.352507 0
M  V30 4 O 3.4791 0.80647 -0.0262583 0
M  V30 5 C 1.64933 -0.655413 -0.379171 0
M  V30 6 C 1.07362 -1.85782 -0.713623 0
M  V30 7 N -0.261803 -1.70624 -0.604555 0
M  V30 8 N -0.548323 -0.474164 -0.220207 0
M  V30 9 C 0.606359 0.206316 -0.0703154 0
M  V30 10 N 0.680376 1.55951 0.333358 0
M  V30 11 C -1.85493 0.0414222 -0.0029989 0
M  V30 12 C -2.15911 0.681982 1.19177 0
M  V30 13 C -3.42907 1.17897 1.39374 0
M  V30 14 C -4.38931 1.039 0.412757 0
M  V30 15 C -4.1207 0.412848 -0.775291 0
M  V30 16 C -2.84862 -0.0835705 -0.974528 0
M  V30 17 F -5.64401 1.52893 0.60988 0
M  V30 18 H 5.52314 -0.299348 -0.000618497 0
M  V30 19 H 5.70399 -0.858722 -1.64383 0
M  V30 20 H 3.695 -2.30736 -0.97343 0
M  V30 21 H 1.6022 -2.77462 -1.0146 0
M  V30 22 H 0.966325 1.82223 1.29008 0
M  V30 23 H 0.440651 2.29319 -0.352869 0
M  V30 24 H -1.39386 0.791242 1.96853 0
M  V30 25 H -3.67117 1.68567 2.33782 0
M  V30 26 H -4.90196 0.315607 -1.53687 0
M  V30 27 H -2.64143 -0.578848 -1.91796 0
M  V30 END ATOM
M  V30 BEGIN BOND
M  V30 1 1 1 2
M  V30 2 1 2 3
M  V30 3 2 3 4
M  V30 4 1 3 5
M  V30 5 1 5 6
M  V30 6 2 6 7
M  V30 7 1 7 8
M  V30 8 1 8 9
M  V30 9 1 9 10
M  V30 10 1 8 11
M  V30 11 2 11 12
M  V30 12 1 12 13
M  V30 13 2 13 14
M  V30 14 1 14 15
M  V30 15 2 15 16
M  V30 16 1 14 17
M  V30 17 2 9 5
M  V30 18 1 16 11
M  V30 19 1 1 18
M  V30 20 1 1 19
M  V30 21 1 2 20
M  V30 22 1 6 21
M  V30 23 1 10 22
M  V30 24 1 10 23
M  V30 25 1 12 24
M  V30 26 1 13 25
M  V30 27 1 15 26
M  V30 28 1 16 27
M  V30 END BOND
M  V30 END CTAB
M  END
