
     RDKit          3D

  0  0  0  0  0  0  0  0  0  0999 V3000
M  V30 BEGIN CTAB
M  V30 COUNTS 28 27 0 0 0
M  V30 BEGIN ATOM
M  V30 1 N -0.630752 -1.39404 -1.0464 0
M  V30 2 C -0.658367 -0.232738 -0.125883 0
M  V30 3 C -1.70147 0.69057 -0.695784 0
M  V30 4 C -1.47693 1.13667 -2.03094 0
M  V30 5 N -1.32722 1.49462 -3.12107 0
M  V30 6 C -1.39137 -0.82344 1.09905 0
M  V30 7 C -0.752679 -1.93574 1.71166 0
M  V30 8 N -0.260991 -2.85015 2.21786 0
M  V30 9 C 0.669737 0.299378 0.144359 0
M  V30 10 N 1.46642 -0.798256 0.782273 0
M  V30 11 C 0.856785 1.44979 1.05786 0
M  V30 12 C 0.466159 1.30903 2.43793 0
M  V30 13 N 0.183606 1.21436 3.55831 0
M  V30 14 C 1.53939 0.588833 -1.09005 0
M  V30 15 C 1.80712 -0.554562 -1.90761 0
M  V30 16 N 2.05243 -1.47542 -2.57327 0
M  V30 17 H -1.3816 -2.06194 -0.818418 0
M  V30 18 H -0.883358 -1.02868 -2.01215 0
M  V30 19 H -2.65951 0.0821056 -0.718546 0
M  V30 20 H -1.95518 1.51287 0.0191065 0
M  V30 21 H -1.72022 0.00787244 1.72109 0
M  V30 22 H -2.37992 -1.21901 0.633774 0
M  V30 23 H 2.31285 -0.40057 1.22963 0
M  V30 24 H 1.74295 -1.49472 0.0860336 0
M  V30 25 H 0.379606 2.39277 0.683724 0
M  V30 26 H 1.9613 1.73445 1.03984 0
M  V30 27 H 2.52095 0.924374 -0.607025 0
M  V30 28 H 1.22027 1.43158 -1.67537 0
M  V30 END ATOM
M  V30 BEGIN BOND
M  V30 1 1 1 2
M  V30 2 1 2 3
M  V30 3 1 3 4
M  V30 4 3 4 5
M  V30 5 1 2 6
M  V30 6 1 6 7
M  V30 7 3 7 8
M  V30 8 1 2 9
M  V30 9 1 9 10
M  V30 10 1 9 11
M  V30 11 1 11 12
M  V30 12 3 12 13
M  V30 13 1 9 14
M  V30 14 1 14 15
M  V30 15 3 15 16
M  V30 16 1 1 17
M  V30 17 1 1 18
M  V30 18 1 3 19
M  V30 19 1 3 20
M  V30 20 1 6 21
M  V30 21 1 6 22
M  V30 22 1 10 23
M  V30 23 1 10 24
M  V30 24 1 11 25
M  V30 25 1 11 26
M  V30 26 1 14 27
M  V30 27 1 14 28
M  V30 END BOND
M  V30 END CTAB
M  END
