
     RDKit          3D

  0  0  0  0  0  0  0  0  0  0999 V3000
M  V30 BEGIN CTAB
M  V30 COUNTS 22 22 0 0 0
M  V30 BEGIN ATOM
M  V30 1 C 1.69695 -1.00134 1.5321 0
M  V30 2 N 1.49199 0.0677065 0.552299 0
M  V30 3 N 2.30779 1.07638 0.417766 0
M  V30 4 C 1.88371 1.90861 -0.551998 0
M  V30 5 C 0.719636 1.34578 -1.03174 0
M  V30 6 C 0.49916 0.195352 -0.322604 0
M  V30 7 C -0.637123 -0.712105 -0.51653 0
M  V30 8 C -1.95016 -0.119789 -0.0281144 0
M  V30 9 N -1.93566 0.197647 1.3654 0
M  V30 10 N -0.796857 -0.906478 -1.95956 0
M  V30 11 Br 2.69505 3.53249 -1.16156 0
M  V30 12 H 2.66859 -1.51321 1.31894 0
M  V30 13 H 0.888878 -1.73628 1.51043 0
M  V30 14 H 1.69348 -0.517802 2.52507 0
M  V30 15 H 0.134461 1.79894 -1.83701 0
M  V30 16 H -0.425894 -1.68533 -0.0818531 0
M  V30 17 H -2.27428 0.701272 -0.671873 0
M  V30 18 H -2.71051 -0.942748 -0.166528 0
M  V30 19 H -1.10889 0.701582 1.70014 0
M  V30 20 H -2.29819 -0.544373 1.96988 0
M  V30 21 H -1.30239 -1.78643 -2.17572 0
M  V30 22 H -1.23974 -0.0598886 -2.38692 0
M  V30 END ATOM
M  V30 BEGIN BOND
M  V30 1 1 1 2
M  V30 2 1 2 3
M  V30 3 2 3 4
M  V30 4 1 4 5
M  V30 5 2 5 6
M  V30 6 1 6 7
M  V30 7 1 7 8
M  V30 8 1 8 9
M  V30 9 1 7 10
M  V30 10 1 4 11
M  V30 11 1 6 2
M  V30 12 1 1 12
M  V30 13 1 1 13
M  V30 14 1 1 14
M  V30 15 1 5 15
M  V30 16 1 7 16
M  V30 17 1 8 17
M  V30 18 1 8 18
M  V30 19 1 9 19
M  V30 20 1 9 20
M  V30 21 1 10 21
M  V30 22 1 10 22
M  V30 END BOND
M  V30 END CTAB
M  END
