
     RDKit          3D

  0  0  0  0  0  0  0  0  0  0999 V3000
M  V30 BEGIN CTAB
M  V30 COUNTS 36 37 0 0 0
M  V30 BEGIN ATOM
M  V30 1 N 6.71152 0.180992 -0.183452 0
M  V30 2 C 5.98117 0.576272 0.960129 0
M  V30 3 N 6.59264 0.98988 2.00269 0
M  V30 4 N 4.57481 0.509107 0.937159 0
M  V30 5 C 3.8779 0.0517062 -0.21347 0
M  V30 6 O 4.4956 -0.306761 -1.24547 0
M  V30 7 C 2.42451 -0.012312 -0.222809 0
M  V30 8 C 1.751 -0.454861 -1.33635 0
M  V30 9 N 2.47153 -0.858229 -2.50064 0
M  V30 10 N 0.405753 -0.536472 -1.40513 0
M  V30 11 C -0.301216 -0.165776 -0.330189 0
M  V30 12 N -1.73326 -0.229497 -0.341273 0
M  V30 13 C -2.52655 0.158895 0.790886 0
M  V30 14 C -3.96537 -0.0105407 0.496493 0
M  V30 15 C -4.64957 -1.18259 0.751677 0
M  V30 16 C -5.99281 -1.2474 0.443034 0
M  V30 17 C -6.67246 -0.18664 -0.109063 0
M  V30 18 C -5.97124 0.96744 -0.353533 0
M  V30 19 C -4.64281 1.07073 -0.0624826 0
M  V30 20 C 0.340412 0.285873 0.811384 0
M  V30 21 N 1.68585 0.356756 0.851311 0
M  V30 22 H 7.20441 -0.754428 -0.22165 0
M  V30 23 H 6.81268 0.768883 -1.04687 0
M  V30 24 H 7.63052 1.03544 2.00887 0
M  V30 25 H 4.04569 0.802119 1.78348 0
M  V30 26 H 2.50978 -0.257777 -3.35976 0
M  V30 27 H 2.98491 -1.76254 -2.53917 0
M  V30 28 H -2.21009 -0.570669 -1.20456 0
M  V30 29 H -2.34738 1.23863 1.03697 0
M  V30 30 H -2.24101 -0.393651 1.72072 0
M  V30 31 H -4.10805 -2.00066 1.18175 0
M  V30 32 H -6.50276 -2.18044 0.654771 0
M  V30 33 H -7.72724 -0.26486 -0.341525 0
M  V30 34 H -6.4856 1.80822 -0.78511 0
M  V30 35 H -4.13881 2.00425 -0.275858 0
M  V30 36 H -0.284447 0.570908 1.64703 0
M  V30 END ATOM
M  V30 BEGIN BOND
M  V30 1 1 1 2
M  V30 2 2 2 3 CFG=2
M  V30 3 1 2 4
M  V30 4 1 4 5
M  V30 5 2 5 6
M  V30 6 1 5 7
M  V30 7 2 7 8
M  V30 8 1 8 9
M  V30 9 1 8 10
M  V30 10 2 10 11
M  V30 11 1 11 12
M  V30 12 1 12 13
M  V30 13 1 13 14
M  V30 14 2 14 15
M  V30 15 1 15 16
M  V30 16 2 16 17
M  V30 17 1 17 18
M  V30 18 2 18 19
M  V30 19 1 11 20
M  V30 20 2 20 21
M  V30 21 1 21 7
M  V30 22 1 19 14
M  V30 23 1 1 22
M  V30 24 1 1 23
M  V30 25 1 3 24
M  V30 26 1 4 25
M  V30 27 1 9 26
M  V30 28 1 9 27
M  V30 29 1 12 28
M  V30 30 1 13 29
M  V30 31 1 13 30
M  V30 32 1 15 31
M  V30 33 1 16 32
M  V30 34 1 17 33
M  V30 35 1 18 34
M  V30 36 1 19 35
M  V30 37 1 20 36
M  V30 END BOND
M  V30 END CTAB
M  END
