
     RDKit          3D

  0  0  0  0  0  0  0  0  0  0999 V3000
M  V30 BEGIN CTAB
M  V30 COUNTS 46 46 0 0 0
M  V30 BEGIN ATOM
M  V30 1 N -1.61309 0.65077 2.88336 0
M  V30 2 C -2.36314 -0.254162 2.01243 0
M  V30 3 C -2.10531 0.0913224 0.582434 0
M  V30 4 N -0.665934 -0.0351304 0.301524 0
M  V30 5 C 0.0952688 1.0956 -0.110226 0
M  V30 6 O -0.498114 2.19744 -0.225135 0
M  V30 7 C 1.53823 0.99651 -0.397875 0
M  V30 8 C 2.24969 0.520441 0.866959 0
M  V30 9 C 3.7402 0.611574 0.614674 0
M  V30 10 N 4.01219 0.0481039 -0.667755 0
M  V30 11 C 2.98116 -0.80324 -1.18172 0
M  V30 12 C 1.81891 0.0890475 -1.56972 0
M  V30 13 S 5.58855 -0.570589 -0.840959 0
M  V30 14 O 5.8824 -1.6678 0.142852 0
M  V30 15 O 5.7688 -1.0713 -2.24255 0
M  V30 16 N 6.69973 0.754905 -0.624909 0
M  V30 17 C -2.89757 -0.820823 -0.310538 0
M  V30 18 C -4.3665 -0.665642 -0.0261733 0
M  V30 19 C -4.7928 0.775994 -0.27445 0
M  V30 20 C -5.16918 -1.55373 -0.992902 0
M  V30 21 H -1.32238 0.134139 3.7557 0
M  V30 22 H -2.16869 1.49736 3.07858 0
M  V30 23 H -2.03353 -1.28661 2.25283 0
M  V30 24 H -3.42046 -0.17449 2.30457 0
M  V30 25 H -2.4131 1.15083 0.415982 0
M  V30 26 H -0.264332 -0.980313 0.423114 0
M  V30 27 H 1.94705 2.00612 -0.607207 0
M  V30 28 H 2.0052 1.28144 1.64622 0
M  V30 29 H 1.93343 -0.484026 1.15442 0
M  V30 30 H 4.33348 0.180419 1.43227 0
M  V30 31 H 4.01469 1.70504 0.57191 0
M  V30 32 H 3.38211 -1.33931 -2.07345 0
M  V30 33 H 2.6287 -1.56261 -0.430916 0
M  V30 34 H 2.17862 0.703113 -2.43514 0
M  V30 35 H 0.932943 -0.475924 -1.89843 0
M  V30 36 H 6.82359 1.22456 -1.57157 0
M  V30 37 H 6.26326 1.4904 -0.0182291 0
M  V30 38 H -2.62951 -1.87499 -0.0339695 0
M  V30 39 H -2.70802 -0.636361 -1.38394 0
M  V30 40 H -4.66803 -1.00758 0.976955 0
M  V30 41 H -4.73507 1.31873 0.68758 0
M  V30 42 H -5.83079 0.799536 -0.649827 0
M  V30 43 H -4.0652 1.22407 -0.994488 0
M  V30 44 H -4.89068 -1.32647 -2.03083 0
M  V30 45 H -4.95808 -2.60971 -0.735415 0
M  V30 46 H -6.2387 -1.34666 -0.818944 0
M  V30 END ATOM
M  V30 BEGIN BOND
M  V30 1 1 1 2
M  V30 2 1 2 3
M  V30 3 1 3 4
M  V30 4 1 4 5
M  V30 5 2 5 6
M  V30 6 1 5 7
M  V30 7 1 7 8
M  V30 8 1 8 9
M  V30 9 1 9 10
M  V30 10 1 10 11
M  V30 11 1 11 12
M  V30 12 1 10 13
M  V30 13 2 13 14
M  V30 14 2 13 15
M  V30 15 1 13 16
M  V30 16 1 3 17
M  V30 17 1 17 18
M  V30 18 1 18 19
M  V30 19 1 18 20
M  V30 20 1 12 7
M  V30 21 1 1 21
M  V30 22 1 1 22
M  V30 23 1 2 23
M  V30 24 1 2 24
M  V30 25 1 3 25
M  V30 26 1 4 26
M  V30 27 1 7 27
M  V30 28 1 8 28
M  V30 29 1 8 29
M  V30 30 1 9 30
M  V30 31 1 9 31
M  V30 32 1 11 32
M  V30 33 1 11 33
M  V30 34 1 12 34
M  V30 35 1 12 35
M  V30 36 1 16 36
M  V30 37 1 16 37
M  V30 38 1 17 38
M  V30 39 1 17 39
M  V30 40 1 18 40
M  V30 41 1 19 41
M  V30 42 1 19 42
M  V30 43 1 19 43
M  V30 44 1 20 44
M  V30 45 1 20 45
M  V30 46 1 20 46
M  V30 END BOND
M  V30 END CTAB
M  END
