
     RDKit          3D

  0  0  0  0  0  0  0  0  0  0999 V3000
M  V30 BEGIN CTAB
M  V30 COUNTS 19 19 0 0 0
M  V30 BEGIN ATOM
M  V30 1 N 2.9281 0.998084 0.617462 0
M  V30 2 C 2.25784 -0.104179 0.0220028 0
M  V30 3 N 2.98951 -1.04651 -0.442118 0
M  V30 4 C 0.814362 -0.0933176 -0.022075 0
M  V30 5 C 0.160668 -1.15247 -0.594573 0
M  V30 6 C -1.22316 -1.12719 -0.629105 0
M  V30 7 C -1.9721 -0.102096 -0.122596 0
M  V30 8 C -1.26188 0.941472 0.443756 0
M  V30 9 C 0.111016 0.964123 0.502797 0
M  V30 10 Cl -2.13727 2.30875 1.12357 0
M  V30 11 N -3.38817 -0.0884091 -0.164254 0
M  V30 12 H 3.37411 1.68892 0.0121199 0
M  V30 13 H 2.93278 1.0495 1.64858 0
M  V30 14 H 2.67777 -1.90312 -0.897668 0
M  V30 15 H 0.675799 -2.02552 -1.03019 0
M  V30 16 H -1.72294 -1.96457 -1.08114 0
M  V30 17 H 0.624118 1.82386 0.966903 0
M  V30 18 H -3.94259 -0.193449 0.705105 0
M  V30 19 H -3.89794 0.0261258 -1.05858 0
M  V30 END ATOM
M  V30 BEGIN BOND
M  V30 1 1 1 2
M  V30 2 2 2 3 CFG=2
M  V30 3 1 2 4
M  V30 4 2 4 5
M  V30 5 1 5 6
M  V30 6 2 6 7
M  V30 7 1 7 8
M  V30 8 2 8 9
M  V30 9 1 8 10
M  V30 10 1 7 11
M  V30 11 1 9 4
M  V30 12 1 1 12
M  V30 13 1 1 13
M  V30 14 1 3 14
M  V30 15 1 5 15
M  V30 16 1 6 16
M  V30 17 1 9 17
M  V30 18 1 11 18
M  V30 19 1 11 19
M  V30 END BOND
M  V30 END CTAB
M  END
