
     RDKit          3D

  0  0  0  0  0  0  0  0  0  0999 V3000
M  V30 BEGIN CTAB
M  V30 COUNTS 35 36 0 0 0
M  V30 BEGIN ATOM
M  V30 1 O -1.50999 2.12345 0.57765 0
M  V30 2 C -1.16474 0.951657 0.589237 0
M  V30 3 N -1.99358 -0.141325 0.335895 0
M  V30 4 C -3.35575 -0.0985575 0.00889083 0
M  V30 5 C -3.84114 1.03357 -0.657112 0
M  V30 6 C -5.14776 1.04026 -1.10015 0
M  V30 7 C -5.99003 -0.0243176 -0.911812 0
M  V30 8 C -5.50868 -1.12252 -0.261113 0
M  V30 9 C -4.1943 -1.16536 0.202409 0
M  V30 10 C -3.79803 -2.32807 0.957908 0
M  V30 11 O -4.65184 -3.29985 1.06569 0
M  V30 12 O -2.58662 -2.52346 1.59607 0
M  V30 13 C 0.283485 0.681572 0.909353 0
M  V30 14 S 1.17143 0.947905 -0.654663 0
M  V30 15 C 2.92171 0.684197 -0.473121 0
M  V30 16 N 3.6848 1.72909 -0.110734 0
M  V30 17 C 5.01983 1.63129 0.0437868 0
M  V30 18 N 5.80997 2.74874 0.428848 0
M  V30 19 C 5.5575 0.377642 -0.196884 0
M  V30 20 C 4.80261 -0.712677 -0.570092 0
M  V30 21 N 3.46164 -0.521138 -0.700892 0
M  V30 22 N 5.38931 -1.99765 -0.818546 0
M  V30 23 H -1.57134 -1.13114 0.33385 0
M  V30 24 H -3.1859 1.84678 -0.820752 0
M  V30 25 H -5.50412 1.92061 -1.61125 0
M  V30 26 H -7.02262 -0.0332649 -1.25936 0
M  V30 27 H -6.14926 -1.98261 -0.093004 0
M  V30 28 H -2.06209 -3.34138 1.39105 0
M  V30 29 H 0.402766 -0.387834 1.20361 0
M  V30 30 H 0.642017 1.36353 1.72332 0
M  V30 31 H 5.62387 3.6979 0.0357396 0
M  V30 32 H 6.59047 2.6548 1.10883 0
M  V30 33 H 6.62634 0.264682 -0.0839735 0
M  V30 34 H 5.34041 -2.80135 -0.190704 0
M  V30 35 H 5.90962 -2.08515 -1.74353 0
M  V30 END ATOM
M  V30 BEGIN BOND
M  V30 1 2 1 2
M  V30 2 1 2 3
M  V30 3 1 3 4
M  V30 4 2 4 5
M  V30 5 1 5 6
M  V30 6 2 6 7
M  V30 7 1 7 8
M  V30 8 2 8 9
M  V30 9 1 9 10
M  V30 10 2 10 11
M  V30 11 1 10 12
M  V30 12 1 2 13
M  V30 13 1 13 14
M  V30 14 1 14 15
M  V30 15 2 15 16
M  V30 16 1 16 17
M  V30 17 1 17 18
M  V30 18 2 17 19
M  V30 19 1 19 20
M  V30 20 2 20 21
M  V30 21 1 20 22
M  V30 22 1 9 4
M  V30 23 1 21 15
M  V30 24 1 3 23
M  V30 25 1 5 24
M  V30 26 1 6 25
M  V30 27 1 7 26
M  V30 28 1 8 27
M  V30 29 1 12 28
M  V30 30 1 13 29
M  V30 31 1 13 30
M  V30 32 1 18 31
M  V30 33 1 18 32
M  V30 34 1 19 33
M  V30 35 1 22 34
M  V30 36 1 22 35
M  V30 END BOND
M  V30 END CTAB
M  END
