
     RDKit          3D

  0  0  0  0  0  0  0  0  0  0999 V3000
M  V30 BEGIN CTAB
M  V30 COUNTS 50 53 0 0 0
M  V30 BEGIN ATOM
M  V30 1 C -7.75996 2.10482 1.85715 0
M  V30 2 C -6.36499 1.54874 2.05271 0
M  V30 3 O -5.77376 1.44157 0.775933 0
M  V30 4 C -4.4829 0.959898 0.581718 0
M  V30 5 C -3.71541 0.560954 1.6494 0
M  V30 6 C -2.43844 0.0811724 1.48738 0
M  V30 7 C -1.82768 -0.0367544 0.233289 0
M  V30 8 C -2.59738 0.362064 -0.82002 0
M  V30 9 C -3.9088 0.854758 -0.654322 0
M  V30 10 C -0.468714 -0.547824 0.166015 0
M  V30 11 N 0.256331 -0.848891 1.29717 0
M  V30 12 N 1.4305 -1.29817 1.00147 0
M  V30 13 C 1.53933 -1.31701 -0.311172 0
M  V30 14 N 0.354137 -0.849053 -0.823095 0
M  V30 15 C 0.165073 -0.762342 -2.20512 0
M  V30 16 C -0.408519 -1.82677 -2.89596 0
M  V30 17 C -0.56225 -1.77369 -4.2618 0
M  V30 18 C -0.168626 -0.695038 -5.00334 0
M  V30 19 C 0.402473 0.358601 -4.29487 0
M  V30 20 C 0.568316 0.332885 -2.93058 0
M  V30 21 F 1.14052 1.41824 -2.32193 0
M  V30 22 S 2.96356 -1.85583 -1.23572 0
M  V30 23 C 4.28221 -2.38092 -0.145741 0
M  V30 24 C 4.89254 -1.31075 0.647705 0
M  V30 25 N 4.40623 -1.02017 1.85781 0
M  V30 26 C 4.90059 -0.0594557 2.65537 0
M  V30 27 N 4.3844 0.250298 3.9391 0
M  V30 28 N 5.94802 0.64968 2.20428 0
M  V30 29 C 6.47829 0.398815 0.991389 0
M  V30 30 N 5.94507 -0.57726 0.22798 0
M  V30 31 N 7.57837 1.18942 0.594054 0
M  V30 32 H -8.18574 2.50301 2.80173 0
M  V30 33 H -8.43032 1.36786 1.36781 0
M  V30 34 H -7.6885 2.96815 1.1646 0
M  V30 35 H -6.34412 0.611815 2.61533 0
M  V30 36 H -5.79046 2.36784 2.57827 0
M  V30 37 H -4.1649 0.640657 2.63413 0
M  V30 38 H -1.85485 -0.228239 2.35424 0
M  V30 39 H -2.20354 0.311208 -1.8203 0
M  V30 40 H -4.46418 1.15262 -1.52504 0
M  V30 41 H -0.733378 -2.69591 -2.35802 0
M  V30 42 H -1.01539 -2.61236 -4.81387 0
M  V30 43 H -0.260531 -0.593012 -6.06585 0
M  V30 44 H 0.727495 1.23794 -4.86738 0
M  V30 45 H 3.83423 -3.12511 0.581568 0
M  V30 46 H 5.06484 -2.93735 -0.706315 0
M  V30 47 H 4.12337 -0.503541 4.60647 0
M  V30 48 H 4.25181 1.23151 4.25098 0
M  V30 49 H 7.68859 2.16046 0.928348 0
M  V30 50 H 8.287 0.790479 -0.0429499 0
M  V30 END ATOM
M  V30 BEGIN BOND
M  V30 1 1 1 2
M  V30 2 1 2 3
M  V30 3 1 3 4
M  V30 4 2 4 5
M  V30 5 1 5 6
M  V30 6 2 6 7
M  V30 7 1 7 8
M  V30 8 2 8 9
M  V30 9 1 7 10
M  V30 10 2 10 11
M  V30 11 1 11 12
M  V30 12 2 12 13
M  V30 13 1 13 14
M  V30 14 1 14 15
M  V30 15 2 15 16
M  V30 16 1 16 17
M  V30 17 2 17 18
M  V30 18 1 18 19
M  V30 19 2 19 20
M  V30 20 1 20 21
M  V30 21 1 13 22
M  V30 22 1 22 23
M  V30 23 1 23 24
M  V30 24 2 24 25
M  V30 25 1 25 26
M  V30 26 1 26 27
M  V30 27 2 26 28
M  V30 28 1 28 29
M  V30 29 2 29 30
M  V30 30 1 29 31
M  V30 31 1 9 4
M  V30 32 1 14 10
M  V30 33 1 20 15
M  V30 34 1 30 24
M  V30 35 1 1 32
M  V30 36 1 1 33
M  V30 37 1 1 34
M  V30 38 1 2 35
M  V30 39 1 2 36
M  V30 40 1 5 37
M  V30 41 1 6 38
M  V30 42 1 8 39
M  V30 43 1 9 40
M  V30 44 1 16 41
M  V30 45 1 17 42
M  V30 46 1 18 43
M  V30 47 1 19 44
M  V30 48 1 23 45
M  V30 49 1 23 46
M  V30 50 1 27 47
M  V30 51 1 27 48
M  V30 52 1 31 49
M  V30 53 1 31 50
M  V30 END BOND
M  V30 END CTAB
M  END
