
     RDKit          3D

  0  0  0  0  0  0  0  0  0  0999 V3000
M  V30 BEGIN CTAB
M  V30 COUNTS 37 40 0 0 0
M  V30 BEGIN ATOM
M  V30 1 N 5.83609 -0.818695 -2.49263 0
M  V30 2 C 4.66944 -0.618316 -1.6837 0
M  V30 3 N 3.6694 0.0739905 -2.2528 0
M  V30 4 C 2.53252 0.301817 -1.54347 0
M  V30 5 C 2.41769 -0.1821 -0.242299 0
M  V30 6 C 1.25214 0.0541131 0.477835 0
M  V30 7 C 0.235641 0.778392 -0.152527 0
M  V30 8 C 0.341744 1.2619 -1.44161 0
M  V30 9 C 1.51434 1.00094 -2.10921 0
M  V30 10 N -0.787089 0.885712 0.748174 0
M  V30 11 C -2.04441 1.55988 0.498225 0
M  V30 12 C -3.12331 0.706604 -0.0320827 0
M  V30 13 C -4.04861 0.145325 0.865893 0
M  V30 14 C -5.08084 -0.667658 0.399674 0
M  V30 15 C -5.2077 -0.929582 -0.936965 0
M  V30 16 C -4.29357 -0.374034 -1.82487 0
M  V30 17 C -3.27055 0.432992 -1.35152 0
M  V30 18 C -0.43346 0.267606 1.87766 0
M  V30 19 Cl -1.31626 0.0937561 3.38239 0
M  V30 20 C 0.854383 -0.272526 1.74184 0
M  V30 21 C 3.4543 -0.891212 0.32693 0
M  V30 22 N 3.43921 -1.42363 1.63391 0
M  V30 23 N 4.55288 -1.07645 -0.443179 0
M  V30 24 H 6.36966 0.0522105 -2.76935 0
M  V30 25 H 6.16175 -1.75118 -2.80337 0
M  V30 26 H -0.469937 1.82141 -1.88484 0
M  V30 27 H 1.63296 1.36199 -3.11593 0
M  V30 28 H -2.40818 2.03167 1.45597 0
M  V30 29 H -1.88379 2.36719 -0.249614 0
M  V30 30 H -3.9882 0.340287 1.917 0
M  V30 31 H -5.77242 -1.08495 1.09333 0
M  V30 32 H -6.00605 -1.55762 -1.28994 0
M  V30 33 H -4.41146 -0.592514 -2.87282 0
M  V30 34 H -2.61265 0.834776 -2.08269 0
M  V30 35 H 1.38206 -0.818282 2.48957 0
M  V30 36 H 3.78816 -0.921608 2.48425 0
M  V30 37 H 3.05413 -2.39219 1.78631 0
M  V30 END ATOM
M  V30 BEGIN BOND
M  V30 1 1 1 2
M  V30 2 2 2 3
M  V30 3 1 3 4
M  V30 4 2 4 5
M  V30 5 1 5 6
M  V30 6 2 6 7
M  V30 7 1 7 8
M  V30 8 2 8 9
M  V30 9 1 7 10
M  V30 10 1 10 11
M  V30 11 1 11 12
M  V30 12 2 12 13
M  V30 13 1 13 14
M  V30 14 2 14 15
M  V30 15 1 15 16
M  V30 16 2 16 17
M  V30 17 1 10 18
M  V30 18 1 18 19
M  V30 19 2 18 20
M  V30 20 1 5 21
M  V30 21 1 21 22
M  V30 22 2 21 23
M  V30 23 1 23 2
M  V30 24 1 9 4
M  V30 25 1 17 12
M  V30 26 1 20 6
M  V30 27 1 1 24
M  V30 28 1 1 25
M  V30 29 1 8 26
M  V30 30 1 9 27
M  V30 31 1 11 28
M  V30 32 1 11 29
M  V30 33 1 13 30
M  V30 34 1 14 31
M  V30 35 1 15 32
M  V30 36 1 16 33
M  V30 37 1 17 34
M  V30 38 1 20 35
M  V30 39 1 22 36
M  V30 40 1 22 37
M  V30 END BOND
M  V30 END CTAB
M  END
