
     RDKit          3D

  0  0  0  0  0  0  0  0  0  0999 V3000
M  V30 BEGIN CTAB
M  V30 COUNTS 22 23 0 0 0
M  V30 BEGIN ATOM
M  V30 1 N 2.12545 1.76243 0.555804 0
M  V30 2 C 2.58263 0.500977 0.0866005 0
M  V30 3 N 3.86973 0.105089 0.238355 0
M  V30 4 N 3.91264 -1.09848 -0.312154 0
M  V30 5 N 2.72131 -1.42976 -0.778249 0
M  V30 6 N 1.87 -0.440231 -0.539003 0
M  V30 7 C 0.466765 -0.407648 -0.890699 0
M  V30 8 C -0.382275 -0.977737 0.225709 0
M  V30 9 N -1.78526 -0.941064 -0.135136 0
M  V30 10 N -2.43931 -1.88799 -0.754102 0
M  V30 11 N -3.68718 -1.50067 -0.909234 0
M  V30 12 N -3.83248 -0.290604 -0.382611 0
M  V30 13 C -2.63504 0.06178 0.104785 0
M  V30 14 N -2.32054 1.26519 0.752195 0
M  V30 15 H 2.31704 2.6382 0.000724349 0
M  V30 16 H 1.59649 1.89017 1.4386 0
M  V30 17 H 0.252636 -0.969827 -1.81298 0
M  V30 18 H 0.100098 0.636538 -1.06941 0
M  V30 19 H -0.26778 -0.401285 1.16462 0
M  V30 20 H -0.088484 -2.05046 0.377455 0
M  V30 21 H -1.49946 1.37475 1.41381 0
M  V30 22 H -2.87698 2.16063 0.632785 0
M  V30 END ATOM
M  V30 BEGIN BOND
M  V30 1 1 1 2
M  V30 2 2 2 3
M  V30 3 1 3 4
M  V30 4 2 4 5
M  V30 5 1 5 6
M  V30 6 1 6 7
M  V30 7 1 7 8
M  V30 8 1 8 9
M  V30 9 1 9 10
M  V30 10 2 10 11
M  V30 11 1 11 12
M  V30 12 2 12 13
M  V30 13 1 13 14
M  V30 14 1 6 2
M  V30 15 1 13 9
M  V30 16 1 1 15
M  V30 17 1 1 16
M  V30 18 1 7 17
M  V30 19 1 7 18
M  V30 20 1 8 19
M  V30 21 1 8 20
M  V30 22 1 14 21
M  V30 23 1 14 22
M  V30 END BOND
M  V30 END CTAB
M  END
