
     RDKit          3D

  0  0  0  0  0  0  0  0  0  0999 V3000
M  V30 BEGIN CTAB
M  V30 COUNTS 19 20 0 0 0
M  V30 BEGIN ATOM
M  V30 1 N -2.82149 -1.57313 -1.43933 0
M  V30 2 C -1.93255 -0.739798 -0.711839 0
M  V30 3 N -0.590078 -0.922368 -0.783161 0
M  V30 4 C 0.290497 -0.161384 -0.114892 0
M  V30 5 N -0.209645 0.821679 0.654581 0
M  V30 6 C -1.53399 1.0696 0.779991 0
M  V30 7 N -2.35698 0.262265 0.0773918 0
M  V30 8 N -2.01256 2.11655 1.60256 0
M  V30 9 C 1.73549 -0.382572 -0.211692 0
M  V30 10 C 2.76526 0.27214 0.378888 0
M  V30 11 C 3.92217 -0.344093 -0.0551382 0
M  V30 12 O 3.57432 -1.31112 -0.860212 0
M  V30 13 N 2.28364 -1.34755 -0.963757 0
M  V30 14 H -3.7501 -1.20891 -1.72699 0
M  V30 15 H -2.58466 -2.54884 -1.70364 0
M  V30 16 H -1.62651 3.07198 1.53496 0
M  V30 17 H -2.76368 1.90691 2.28015 0
M  V30 18 H 2.67663 1.10524 1.05021 0
M  V30 19 H 4.93425 -0.0866152 0.211911 0
M  V30 END ATOM
M  V30 BEGIN BOND
M  V30 1 1 1 2
M  V30 2 2 2 3
M  V30 3 1 3 4
M  V30 4 2 4 5
M  V30 5 1 5 6
M  V30 6 2 6 7
M  V30 7 1 6 8
M  V30 8 1 4 9
M  V30 9 1 9 10
M  V30 10 2 10 11
M  V30 11 1 11 12
M  V30 12 1 12 13
M  V30 13 1 7 2
M  V30 14 2 13 9
M  V30 15 1 1 14
M  V30 16 1 1 15
M  V30 17 1 8 16
M  V30 18 1 8 17
M  V30 19 1 10 18
M  V30 20 1 11 19
M  V30 END BOND
M  V30 END CTAB
M  END
