
     RDKit          3D

  0  0  0  0  0  0  0  0  0  0999 V3000
M  V30 BEGIN CTAB
M  V30 COUNTS 24 25 0 0 0
M  V30 BEGIN ATOM
M  V30 1 N -3.69588 -0.473359 -0.728511 0
M  V30 2 N -2.73896 -0.543538 0.260622 0
M  V30 3 C -1.36819 -0.225311 0.170379 0
M  V30 4 C -0.370587 -1.14066 -0.0105859 0
M  V30 5 C 0.963179 -0.81108 -0.07038 0
M  V30 6 C 1.32826 0.525302 0.0592293 0
M  V30 7 C 2.65696 0.916711 0.0144933 0
M  V30 8 C 3.6377 -0.0233672 -0.158037 0
M  V30 9 C 3.29197 -1.36473 -0.288051 0
M  V30 10 C 1.95741 -1.74745 -0.242438 0
M  V30 11 C 0.296397 1.4162 0.238958 0
M  V30 12 O 0.618365 2.63623 0.360469 0
M  V30 13 N -0.99921 1.0651 0.293393 0
M  V30 14 N -1.99594 2.05645 0.470849 0
M  V30 15 H -4.03281 -1.45267 -0.963377 0
M  V30 16 H -4.58947 -0.00402753 -0.38163 0
M  V30 17 H -3.04647 -0.875055 1.23193 0
M  V30 18 H -0.626226 -2.20034 -0.117723 0
M  V30 19 H 2.92767 1.95332 0.123183 0
M  V30 20 H 4.66207 0.335088 -0.180547 0
M  V30 21 H 4.08035 -2.07197 -0.425105 0
M  V30 22 H 1.73653 -2.80164 -0.350829 0
M  V30 23 H -2.57321 2.42031 -0.298439 0
M  V30 24 H -2.11989 2.41046 1.43718 0
M  V30 END ATOM
M  V30 BEGIN BOND
M  V30 1 1 1 2
M  V30 2 1 2 3
M  V30 3 2 3 4
M  V30 4 1 4 5
M  V30 5 2 5 6
M  V30 6 1 6 7
M  V30 7 2 7 8
M  V30 8 1 8 9
M  V30 9 2 9 10
M  V30 10 1 6 11
M  V30 11 2 11 12
M  V30 12 1 11 13
M  V30 13 1 13 14
M  V30 14 1 13 3
M  V30 15 1 10 5
M  V30 16 1 1 15
M  V30 17 1 1 16
M  V30 18 1 2 17
M  V30 19 1 4 18
M  V30 20 1 7 19
M  V30 21 1 8 20
M  V30 22 1 9 21
M  V30 23 1 10 22
M  V30 24 1 14 23
M  V30 25 1 14 24
M  V30 END BOND
M  V30 END CTAB
M  END
