
     RDKit          3D

  0  0  0  0  0  0  0  0  0  0999 V3000
M  V30 BEGIN CTAB
M  V30 COUNTS 20 20 0 0 0
M  V30 BEGIN ATOM
M  V30 1 N -1.62962 2.13151 0.666945 0
M  V30 2 N -0.5459 1.42311 0.236694 0
M  V30 3 C -0.636264 0.0355063 -0.0466674 0
M  V30 4 C -1.86413 -0.62641 0.10422 0
M  V30 5 Cl -3.23808 0.327576 0.651864 0
M  V30 6 C -1.99059 -1.96878 -0.16521 0
M  V30 7 N -0.914984 -2.65911 -0.581502 0
M  V30 8 C 0.279418 -2.07205 -0.740899 0
M  V30 9 C 0.428002 -0.720218 -0.474539 0
M  V30 10 S 1.99296 0.0630456 -0.669504 0
M  V30 11 O 1.92077 1.19231 -1.63825 0
M  V30 12 O 2.99223 -0.988762 -1.12775 0
M  V30 13 N 2.46928 0.673216 0.865875 0
M  V30 14 H -1.59885 2.4988 1.62211 0
M  V30 15 H -2.13 2.68665 -0.031479 0
M  V30 16 H 0.36016 1.90499 0.110975 0
M  V30 17 H -2.96894 -2.44646 -0.0337826 0
M  V30 18 H 1.17284 -2.58879 -1.07431 0
M  V30 19 H 2.57047 -0.127993 1.51105 0
M  V30 20 H 3.33122 1.26187 0.814157 0
M  V30 END ATOM
M  V30 BEGIN BOND
M  V30 1 1 1 2
M  V30 2 1 2 3
M  V30 3 2 3 4
M  V30 4 1 4 5
M  V30 5 1 4 6
M  V30 6 2 6 7
M  V30 7 1 7 8
M  V30 8 2 8 9
M  V30 9 1 9 10
M  V30 10 2 10 11
M  V30 11 2 10 12
M  V30 12 1 10 13
M  V30 13 1 9 3
M  V30 14 1 1 14
M  V30 15 1 1 15
M  V30 16 1 2 16
M  V30 17 1 6 17
M  V30 18 1 8 18
M  V30 19 1 13 19
M  V30 20 1 13 20
M  V30 END BOND
M  V30 END CTAB
M  END
