
     RDKit          3D

  0  0  0  0  0  0  0  0  0  0999 V3000
M  V30 BEGIN CTAB
M  V30 COUNTS 59 62 0 0 0
M  V30 BEGIN ATOM
M  V30 1 C -7.57658 1.99997 1.78205 0
M  V30 2 C -6.14942 2.00885 1.33846 0
M  V30 3 C -5.23654 2.64058 2.14505 0
M  V30 4 C -3.92337 2.67554 1.78289 0
M  V30 5 C -3.53735 2.06112 0.588981 0
M  V30 6 C -4.40807 1.42499 -0.23636 0
M  V30 7 C -4.04092 0.797661 -1.51455 0
M  V30 8 O -2.80733 0.721972 -1.94413 0
M  V30 9 C -1.76761 0.0700352 -1.42661 0
M  V30 10 C -1.93001 -1.40572 -1.31077 0
M  V30 11 C -0.90128 -2.15925 -0.824085 0
M  V30 12 C -1.08815 -3.54303 -0.708435 0
M  V30 13 N -0.0001397 -4.3169 -0.200315 0
M  V30 14 N -2.22901 -4.15032 -1.05627 0
M  V30 15 C -3.23242 -3.38358 -1.53619 0
M  V30 16 N -4.43852 -4.01468 -1.90495 0
M  V30 17 N -3.06289 -2.0605 -1.64924 0
M  V30 18 C 0.353016 -1.53738 -0.482786 0
M  V30 19 C 0.659683 -0.851586 0.658389 0
M  V30 20 C 1.92561 -0.308605 0.88139 0
M  V30 21 C 2.91641 -0.457593 -0.0713427 0
M  V30 22 N 4.22063 0.0682863 0.101281 0
M  V30 23 C 4.67354 0.810043 1.25948 0
M  V30 24 C 6.10203 1.18978 1.12641 0
M  V30 25 C 6.97956 0.282575 0.5703 0
M  V30 26 C 8.32673 0.568099 0.401255 0
M  V30 27 C 8.82566 1.81106 0.803056 0
M  V30 28 Cl 10.5228 2.121 0.566734 0
M  V30 29 C 7.94828 2.70887 1.35649 0
M  V30 30 C 6.60992 2.4084 1.51728 0
M  V30 31 C 2.62115 -1.1497 -1.2325 0
M  V30 32 C 1.36883 -1.68045 -1.44006 0
M  V30 33 C -5.75295 1.40951 0.168175 0
M  V30 34 F -6.67914 0.795604 -0.600541 0
M  V30 35 H -7.71336 2.54282 2.71497 0
M  V30 36 H -8.17268 2.32347 0.928908 0
M  V30 37 H -7.86215 0.931816 2.00797 0
M  V30 38 H -5.58383 3.10517 3.06393 0
M  V30 39 H -3.20785 3.17166 2.41345 0
M  V30 40 H -2.47064 2.16068 0.379085 0
M  V30 41 H -4.66592 -0.140197 -1.59047 0
M  V30 42 H -4.59829 1.42982 -2.33007 0
M  V30 43 H -1.3009 0.453684 -0.4976 0
M  V30 44 H -0.913321 0.188409 -2.18199 0
M  V30 45 H 0.561704 -3.89759 0.562907 0
M  V30 46 H 0.253499 -5.2607 -0.550586 0
M  V30 47 H -4.56917 -4.33668 -2.87132 0
M  V30 48 H -5.18008 -4.14919 -1.20375 0
M  V30 49 H -0.114197 -0.735609 1.40144 0
M  V30 50 H 2.16021 0.23006 1.78398 0
M  V30 51 H 4.92572 -0.0727779 -0.65428 0
M  V30 52 H 4.48926 0.218353 2.17867 0
M  V30 53 H 4.08644 1.75852 1.2965 0
M  V30 54 H 6.62292 -0.673962 0.261871 0
M  V30 55 H 8.98965 -0.146624 -0.0311923 0
M  V30 56 H 8.38264 3.6681 1.65827 0
M  V30 57 H 5.95559 3.13395 1.95333 0
M  V30 58 H 3.42349 -1.2495 -1.96013 0
M  V30 59 H 1.20917 -2.20835 -2.37018 0
M  V30 END ATOM
M  V30 BEGIN BOND
M  V30 1 1 1 2
M  V30 2 2 2 3
M  V30 3 1 3 4
M  V30 4 2 4 5
M  V30 5 1 5 6
M  V30 6 1 6 7
M  V30 7 1 7 8
M  V30 8 1 8 9
M  V30 9 1 9 10
M  V30 10 1 10 11
M  V30 11 2 11 12
M  V30 12 1 12 13
M  V30 13 1 12 14
M  V30 14 2 14 15
M  V30 15 1 15 16
M  V30 16 1 15 17
M  V30 17 1 11 18
M  V30 18 2 18 19
M  V30 19 1 19 20
M  V30 20 2 20 21
M  V30 21 1 21 22
M  V30 22 1 22 23
M  V30 23 1 23 24
M  V30 24 2 24 25
M  V30 25 1 25 26
M  V30 26 2 26 27
M  V30 27 1 27 28
M  V30 28 1 27 29
M  V30 29 2 29 30
M  V30 30 1 21 31
M  V30 31 2 31 32
M  V30 32 2 6 33
M  V30 33 1 33 34
M  V30 34 1 33 2
M  V30 35 2 17 10
M  V30 36 1 32 18
M  V30 37 1 30 24
M  V30 38 1 1 35
M  V30 39 1 1 36
M  V30 40 1 1 37
M  V30 41 1 3 38
M  V30 42 1 4 39
M  V30 43 1 5 40
M  V30 44 1 7 41
M  V30 45 1 7 42
M  V30 46 1 9 43
M  V30 47 1 9 44
M  V30 48 1 13 45
M  V30 49 1 13 46
M  V30 50 1 16 47
M  V30 51 1 16 48
M  V30 52 1 19 49
M  V30 53 1 20 50
M  V30 54 1 22 51
M  V30 55 1 23 52
M  V30 56 1 23 53
M  V30 57 1 25 54
M  V30 58 1 26 55
M  V30 59 1 29 56
M  V30 60 1 30 57
M  V30 61 1 31 58
M  V30 62 1 32 59
M  V30 END BOND
M  V30 END CTAB
M  END
