
     RDKit          3D

  0  0  0  0  0  0  0  0  0  0999 V3000
M  V30 BEGIN CTAB
M  V30 COUNTS 28 28 0 0 0
M  V30 BEGIN ATOM
M  V30 1 C -1.73856 -1.89474 -1.41718 0
M  V30 2 C -0.861627 -0.919691 -0.690536 0
M  V30 3 C 0.515146 -1.0077 -0.763409 0
M  V30 4 C 1.33299 -0.110504 -0.0948008 0
M  V30 5 C 2.81562 -0.204076 -0.172334 0
M  V30 6 N 3.15402 -1.31291 -1.00546 0
M  V30 7 C 0.754217 0.888189 0.656885 0
M  V30 8 C 1.64284 1.84668 1.37109 0
M  V30 9 C -0.623698 0.95906 0.716908 0
M  V30 10 C -1.44546 0.0702997 0.0546517 0
M  V30 11 C -2.92956 0.215575 0.170976 0
M  V30 12 N -3.24956 1.33299 1.01035 0
M  V30 13 H -2.45961 -1.35428 -2.07829 0
M  V30 14 H -1.08207 -2.48907 -2.09085 0
M  V30 15 H -2.23777 -2.5096 -0.648594 0
M  V30 16 H 0.925504 -1.8025 -1.3614 0
M  V30 17 H 3.21291 0.745791 -0.575135 0
M  V30 18 H 3.20763 -0.288551 0.864561 0
M  V30 19 H 3.20773 -2.22066 -0.530635 0
M  V30 20 H 3.90007 -1.12738 -1.70232 0
M  V30 21 H 1.02123 2.36066 2.13101 0
M  V30 22 H 2.06378 2.54786 0.622694 0
M  V30 23 H 2.48314 1.35195 1.86118 0
M  V30 24 H -1.02001 1.77797 1.33288 0
M  V30 25 H -3.37175 0.379364 -0.814421 0
M  V30 26 H -3.35499 -0.70669 0.630605 0
M  V30 27 H -2.98065 2.21927 0.538325 0
M  V30 28 H -2.88152 1.25269 1.98325 0
M  V30 END ATOM
M  V30 BEGIN BOND
M  V30 1 1 1 2
M  V30 2 2 2 3
M  V30 3 1 3 4
M  V30 4 1 4 5
M  V30 5 1 5 6
M  V30 6 2 4 7
M  V30 7 1 7 8
M  V30 8 1 7 9
M  V30 9 2 9 10
M  V30 10 1 10 11
M  V30 11 1 11 12
M  V30 12 1 10 2
M  V30 13 1 1 13
M  V30 14 1 1 14
M  V30 15 1 1 15
M  V30 16 1 3 16
M  V30 17 1 5 17
M  V30 18 1 5 18
M  V30 19 1 6 19
M  V30 20 1 6 20
M  V30 21 1 8 21
M  V30 22 1 8 22
M  V30 23 1 8 23
M  V30 24 1 9 24
M  V30 25 1 11 25
M  V30 26 1 11 26
M  V30 27 1 12 27
M  V30 28 1 12 28
M  V30 END BOND
M  V30 END CTAB
M  END
