
     RDKit          3D

  0  0  0  0  0  0  0  0  0  0999 V3000
M  V30 BEGIN CTAB
M  V30 COUNTS 48 50 0 0 0
M  V30 BEGIN ATOM
M  V30 1 C 1.65538 0.825699 3.27067 0
M  V30 2 C 0.866789 -0.198637 2.50371 0
M  V30 3 N 0.88982 -0.044179 1.07696 0
M  V30 4 C -0.106359 0.709394 0.385459 0
M  V30 5 C -0.0597265 2.06007 0.352216 0
M  V30 6 O 0.802169 2.78873 0.914933 0
M  V30 7 N -1.04479 2.67561 -0.367391 0
M  V30 8 C -2.00642 2.0017 -1.00642 0
M  V30 9 O -2.90012 2.61255 -1.66806 0
M  V30 10 N -2.05372 0.656001 -0.971885 0
M  V30 11 C -1.12982 -0.00307206 -0.293032 0
M  V30 12 N -1.05643 -1.41077 -0.174304 0
M  V30 13 C -3.08501 -0.0598815 -1.6861 0
M  V30 14 C -4.24357 -0.401365 -0.883587 0
M  V30 15 C -5.22631 0.490667 -0.547032 0
M  V30 16 C -6.34642 0.115392 0.204386 0
M  V30 17 C -6.44099 -1.19675 0.605349 0
M  V30 18 C -5.46581 -2.09189 0.272741 0
M  V30 19 C -4.37454 -1.71923 -0.461619 0
M  V30 20 C 1.92001 -0.682164 0.338745 0
M  V30 21 O 2.00942 -0.478004 -0.886181 0
M  V30 22 C 2.88783 -1.58863 0.9988 0
M  V30 23 S 4.1268 -2.2838 -0.103825 0
M  V30 24 C 5.35746 -1.09251 -0.627281 0
M  V30 25 N 6.5059 -0.834408 0.023282 0
M  V30 26 N 7.31398 0.0156283 -0.436419 0
M  V30 27 C 7.03361 0.660463 -1.56371 0
M  V30 28 S 5.49515 -0.0368154 -1.95114 0
M  V30 29 N 7.80061 1.64736 -2.26714 0
M  V30 30 H 2.28094 0.348893 4.09718 0
M  V30 31 H 1.03032 1.58572 3.75199 0
M  V30 32 H 2.41838 1.2547 2.59837 0
M  V30 33 H -0.183668 -0.312039 2.89059 0
M  V30 34 H 1.32434 -1.19474 2.81455 0
M  V30 35 H -1.03704 3.71116 -0.413486 0
M  V30 36 H -1.17204 -2.11218 -0.91554 0
M  V30 37 H -0.860974 -1.77301 0.798424 0
M  V30 38 H -2.63379 -0.996753 -2.12941 0
M  V30 39 H -3.37394 0.607155 -2.56514 0
M  V30 40 H -5.17489 1.51585 -0.871843 0
M  V30 41 H -7.07839 0.852248 0.435483 0
M  V30 42 H -7.31548 -1.4985 1.19257 0
M  V30 43 H -5.59828 -3.12679 0.623239 0
M  V30 44 H -3.64111 -2.48021 -0.729272 0
M  V30 45 H 3.36595 -1.04117 1.8629 0
M  V30 46 H 2.3481 -2.4595 1.47066 0
M  V30 47 H 7.97921 1.48412 -3.29899 0
M  V30 48 H 8.19749 2.49789 -1.87613 0
M  V30 END ATOM
M  V30 BEGIN BOND
M  V30 1 1 1 2
M  V30 2 1 2 3
M  V30 3 1 3 4
M  V30 4 1 4 5
M  V30 5 2 5 6
M  V30 6 1 5 7
M  V30 7 1 7 8
M  V30 8 2 8 9
M  V30 9 1 8 10
M  V30 10 1 10 11
M  V30 11 1 11 12
M  V30 12 1 10 13
M  V30 13 1 13 14
M  V30 14 2 14 15
M  V30 15 1 15 16
M  V30 16 2 16 17
M  V30 17 1 17 18
M  V30 18 2 18 19
M  V30 19 1 3 20
M  V30 20 2 20 21
M  V30 21 1 20 22
M  V30 22 1 22 23
M  V30 23 1 23 24
M  V30 24 2 24 25
M  V30 25 1 25 26
M  V30 26 2 26 27
M  V30 27 1 27 28
M  V30 28 1 27 29
M  V30 29 2 11 4
M  V30 30 1 19 14
M  V30 31 1 28 24
M  V30 32 1 1 30
M  V30 33 1 1 31
M  V30 34 1 1 32
M  V30 35 1 2 33
M  V30 36 1 2 34
M  V30 37 1 7 35
M  V30 38 1 12 36
M  V30 39 1 12 37
M  V30 40 1 13 38
M  V30 41 1 13 39
M  V30 42 1 15 40
M  V30 43 1 16 41
M  V30 44 1 17 42
M  V30 45 1 18 43
M  V30 46 1 19 44
M  V30 47 1 22 45
M  V30 48 1 22 46
M  V30 49 1 29 47
M  V30 50 1 29 48
M  V30 END BOND
M  V30 END CTAB
M  END
