
     RDKit          3D

  0  0  0  0  0  0  0  0  0  0999 V3000
M  V30 BEGIN CTAB
M  V30 COUNTS 26 28 0 0 0
M  V30 BEGIN ATOM
M  V30 1 N -4.22023 -2.40102 -0.245849 0
M  V30 2 C -3.14235 -1.4741 -0.1265 0
M  V30 3 N -1.86629 -1.83568 -0.385757 0
M  V30 4 C -0.824681 -0.990546 -0.284317 0
M  V30 5 C 0.47588 -1.368 -0.551 0
M  V30 6 C 1.53472 -0.483427 -0.440885 0
M  V30 7 O 2.83067 -0.8689 -0.709194 0
M  V30 8 C 3.96775 -0.0652046 -0.471062 0
M  V30 9 C 3.67486 1.15181 0.352869 0
M  V30 10 O 2.38142 1.68917 0.0494568 0
M  V30 11 C 1.29404 0.828888 -0.0504141 0
M  V30 12 C 0.00102038 1.22556 0.220598 0
M  V30 13 C -1.02515 0.318206 0.100133 0
M  V30 14 C -2.33516 0.694634 0.36772 0
M  V30 15 N -3.33723 -0.196231 0.248768 0
M  V30 16 N -2.57607 2.02205 0.762362 0
M  V30 17 H -4.75287 -2.43618 -1.12784 0
M  V30 18 H -4.46829 -3.03363 0.542667 0
M  V30 19 H 0.644402 -2.39203 -0.853278 0
M  V30 20 H 4.69836 -0.710788 0.0706265 0
M  V30 21 H 4.42573 0.232465 -1.43661 0
M  V30 22 H 3.7325 0.899356 1.44932 0
M  V30 23 H 4.45596 1.90377 0.127859 0
M  V30 24 H -0.202282 2.25311 0.528183 0
M  V30 25 H -3.21754 2.20412 1.56475 0
M  V30 26 H -2.14917 2.83259 0.29739 0
M  V30 END ATOM
M  V30 BEGIN BOND
M  V30 1 1 1 2
M  V30 2 2 2 3
M  V30 3 1 3 4
M  V30 4 2 4 5
M  V30 5 1 5 6
M  V30 6 1 6 7
M  V30 7 1 7 8
M  V30 8 1 8 9
M  V30 9 1 9 10
M  V30 10 1 10 11
M  V30 11 1 11 12
M  V30 12 2 12 13
M  V30 13 1 13 14
M  V30 14 2 14 15
M  V30 15 1 14 16
M  V30 16 1 15 2
M  V30 17 1 13 4
M  V30 18 2 11 6
M  V30 19 1 1 17
M  V30 20 1 1 18
M  V30 21 1 5 19
M  V30 22 1 8 20
M  V30 23 1 8 21
M  V30 24 1 9 22
M  V30 25 1 9 23
M  V30 26 1 12 24
M  V30 27 1 16 25
M  V30 28 1 16 26
M  V30 END BOND
M  V30 END CTAB
M  END
