
     RDKit          3D

  0  0  0  0  0  0  0  0  0  0999 V3000
M  V30 BEGIN CTAB
M  V30 COUNTS 56 58 0 0 0
M  V30 BEGIN ATOM
M  V30 1 C -3.89788 0.547338 1.57814 0 CFG=1
M  V30 2 S -3.17864 1.41378 2.95053 0
M  V30 3 C -4.02159 3.02128 2.92394 0
M  V30 4 C -5.50032 2.85767 2.76502 0
M  V30 5 C -6.31246 3.68775 3.6035 0
M  V30 6 C -5.85649 4.56567 4.45215 0
M  V30 7 C -5.97209 1.96685 1.88339 0
M  V30 8 N -5.111 1.1703 1.09365 0
M  V30 9 C -4.73715 0.562822 -0.133915 0
M  V30 10 O -5.36509 -0.0204807 -1.05965 0
M  V30 11 C -3.36288 0.942652 0.22184 0
M  V30 12 N -2.28334 0.045647 -0.223154 0
M  V30 13 C -1.01237 0.544483 -0.420492 0
M  V30 14 O -0.858443 1.82706 -0.169056 0
M  V30 15 C 0.172372 -0.102397 -0.862336 0
M  V30 16 N 1.28406 0.598874 -0.868203 0
M  V30 17 O 2.45257 0.0631105 -1.27251 0
M  V30 18 C 3.43192 0.863247 -1.93119 0
M  V30 19 C 4.63086 0.0608834 -2.22306 0
M  V30 20 O 5.62944 0.587267 -2.82157 0
M  V30 21 O 4.75979 -1.25367 -1.88744 0
M  V30 22 C 5.87862 -2.08223 -2.1281 0
M  V30 23 C 7.13144 -1.62594 -1.43787 0
M  V30 24 N 8.17944 -2.59488 -1.7849 0
M  V30 25 C 6.88268 -1.75289 0.0282704 0
M  V30 26 O 7.6022 -2.63003 0.785642 0
M  V30 27 O 5.96791 -0.999196 0.510989 0
M  V30 28 C 0.273097 -1.49572 -1.28789 0
M  V30 29 C -0.775073 -2.26169 -1.70098 0
M  V30 30 S -0.03311 -3.80809 -1.94926 0
M  V30 31 C 1.55888 -3.3808 -1.51539 0
M  V30 32 N 2.75202 -4.20043 -1.48001 0
M  V30 33 N 1.4379 -2.12628 -1.21474 0
M  V30 34 C -7.38816 1.79557 1.67636 0
M  V30 35 O -7.87033 0.84232 0.731124 0
M  V30 36 O -8.30628 2.3938 2.23538 0
M  V30 37 H -3.99589 -0.484839 1.70676 0
M  V30 38 H -3.80302 3.48079 3.88144 0
M  V30 39 H -3.57157 3.62817 2.1183 0
M  V30 40 H -7.39403 3.61971 3.57391 0
M  V30 41 H -4.84009 4.76625 4.61772 0
M  V30 42 H -6.56522 5.1515 5.05295 0
M  V30 43 H -3.08811 1.99134 0.206469 0
M  V30 44 H -2.57217 -0.929882 -0.322342 0
M  V30 45 H 3.71883 1.65792 -1.1842 0
M  V30 46 H 3.02477 1.40158 -2.79456 0
M  V30 47 H 5.59623 -3.11478 -1.84772 0
M  V30 48 H 6.00484 -2.11438 -3.24132 0
M  V30 49 H 7.41961 -0.613701 -1.7236 0
M  V30 50 H 9.08937 -2.29038 -1.39285 0
M  V30 51 H 8.15259 -2.73178 -2.81046 0
M  V30 52 H 7.9276 -2.31577 1.69929 0
M  V30 53 H -1.83822 -2.02045 -1.89293 0
M  V30 54 H 3.43596 -4.06677 -2.22999 0
M  V30 55 H 2.89512 -4.89147 -0.716295 0
M  V30 56 H -7.77907 -0.146707 0.935479 0
M  V30 END ATOM
M  V30 BEGIN BOND
M  V30 1 1 1 2
M  V30 2 1 2 3
M  V30 3 1 3 4
M  V30 4 1 4 5
M  V30 5 2 5 6 CFG=2
M  V30 6 2 4 7
M  V30 7 1 7 8
M  V30 8 1 8 9
M  V30 9 2 9 10
M  V30 10 1 9 11
M  V30 11 1 11 12
M  V30 12 1 12 13
M  V30 13 2 13 14
M  V30 14 1 13 15
M  V30 15 2 15 16
M  V30 16 1 16 17
M  V30 17 1 17 18
M  V30 18 1 18 19
M  V30 19 2 19 20
M  V30 20 1 19 21
M  V30 21 1 21 22
M  V30 22 1 22 23
M  V30 23 1 23 24
M  V30 24 1 23 25
M  V30 25 1 25 26
M  V30 26 2 25 27
M  V30 27 1 15 28
M  V30 28 2 28 29
M  V30 29 1 29 30
M  V30 30 1 30 31
M  V30 31 1 31 32
M  V30 32 2 31 33
M  V30 33 1 7 34
M  V30 34 1 34 35
M  V30 35 2 34 36
M  V30 36 1 8 1
M  V30 37 1 33 28
M  V30 38 1 11 1
M  V30 39 1 1 37 CFG=1
M  V30 40 1 3 38
M  V30 41 1 3 39
M  V30 42 1 5 40
M  V30 43 1 6 41
M  V30 44 1 6 42
M  V30 45 1 11 43
M  V30 46 1 12 44
M  V30 47 1 18 45
M  V30 48 1 18 46
M  V30 49 1 22 47
M  V30 50 1 22 48
M  V30 51 1 23 49
M  V30 52 1 24 50
M  V30 53 1 24 51
M  V30 54 1 26 52
M  V30 55 1 29 53
M  V30 56 1 32 54
M  V30 57 1 32 55
M  V30 58 1 35 56
M  V30 END BOND
M  V30 END CTAB
M  END
