
     RDKit          3D

  0  0  0  0  0  0  0  0  0  0999 V3000
M  V30 BEGIN CTAB
M  V30 COUNTS 35 36 0 0 0
M  V30 BEGIN ATOM
M  V30 1 F 7.54505 -0.342956 -0.915337 0
M  V30 2 C 6.65769 0.353648 -0.0722037 0
M  V30 3 O 5.69256 -0.523249 0.397093 0
M  V30 4 C 4.34444 -0.386659 0.206519 0
M  V30 5 C 3.8409 0.67645 -0.493677 0
M  V30 6 C 2.45817 0.747882 -0.646458 0
M  V30 7 C 1.60159 -0.194959 -0.127651 0
M  V30 8 C 2.10515 -1.26519 0.576953 0
M  V30 9 C 3.46605 -1.34819 0.735243 0
M  V30 10 C 0.160753 -0.0399291 -0.33691 0
M  V30 11 S -0.789621 0.0195705 1.19472 0
M  V30 12 C -2.50205 0.209886 0.778223 0
M  V30 13 N -3.26107 -0.875019 0.584576 0
M  V30 14 C -4.58239 -0.751721 0.263181 0
M  V30 15 N -5.40201 -1.88522 0.0541997 0
M  V30 16 C -5.11893 0.509464 0.142174 0
M  V30 17 C -4.33511 1.62841 0.342142 0
M  V30 18 N -3.0222 1.42955 0.660883 0
M  V30 19 N -4.9048 2.92257 0.213422 0
M  V30 20 C -0.311451 -1.22775 -1.18048 0
M  V30 21 F 7.41325 0.849338 1.00639 0
M  V30 22 H 6.31755 1.22059 -0.637553 0
M  V30 23 H 4.42052 1.47202 -0.94275 0
M  V30 24 H 2.06631 1.60971 -1.21279 0
M  V30 25 H 1.43578 -2.03355 1.00203 0
M  V30 26 H 3.89045 -2.17064 1.27967 0
M  V30 27 H -0.0708198 0.870668 -0.919668 0
M  V30 28 H -5.79575 -2.36119 0.896396 0
M  V30 29 H -5.62197 -2.25558 -0.914367 0
M  V30 30 H -6.17394 0.677748 -0.113959 0
M  V30 31 H -4.82424 3.61133 1.00793 0
M  V30 32 H -5.41202 3.25434 -0.631818 0
M  V30 33 H -1.33309 -0.947813 -1.55916 0
M  V30 34 H 0.402736 -1.31624 -2.02169 0
M  V30 35 H -0.357476 -2.13729 -0.5497 0
M  V30 END ATOM
M  V30 BEGIN BOND
M  V30 1 1 1 2
M  V30 2 1 2 3
M  V30 3 1 3 4
M  V30 4 2 4 5
M  V30 5 1 5 6
M  V30 6 2 6 7
M  V30 7 1 7 8
M  V30 8 2 8 9
M  V30 9 1 7 10
M  V30 10 1 10 11
M  V30 11 1 11 12
M  V30 12 2 12 13
M  V30 13 1 13 14
M  V30 14 1 14 15
M  V30 15 2 14 16
M  V30 16 1 16 17
M  V30 17 2 17 18
M  V30 18 1 17 19
M  V30 19 1 10 20
M  V30 20 1 2 21
M  V30 21 1 9 4
M  V30 22 1 18 12
M  V30 23 1 2 22
M  V30 24 1 5 23
M  V30 25 1 6 24
M  V30 26 1 8 25
M  V30 27 1 9 26
M  V30 28 1 10 27
M  V30 29 1 15 28
M  V30 30 1 15 29
M  V30 31 1 16 30
M  V30 32 1 19 31
M  V30 33 1 19 32
M  V30 34 1 20 33
M  V30 35 1 20 34
M  V30 36 1 20 35
M  V30 END BOND
M  V30 END CTAB
M  END
