
     RDKit          3D

  0  0  0  0  0  0  0  0  0  0999 V3000
M  V30 BEGIN CTAB
M  V30 COUNTS 31 33 0 0 0
M  V30 BEGIN ATOM
M  V30 1 N 3.68131 -3.27151 0.0776417 0
M  V30 2 N 2.90463 -2.08766 -0.0574969 0
M  V30 3 C 3.51576 -0.858528 -0.351856 0
M  V30 4 O 4.79819 -0.919846 -0.479799 0
M  V30 5 C 2.86173 0.416942 -0.517343 0
M  V30 6 N 3.5793 1.55461 -0.80461 0
M  V30 7 N 2.75529 2.53952 -0.8982 0
M  V30 8 N 1.523 2.16953 -0.697537 0
M  V30 9 C 1.5703 0.823104 -0.453863 0
M  V30 10 S 0.220269 -0.26208 -0.111622 0
M  V30 11 C -1.2054 0.671315 0.339939 0
M  V30 12 N -1.35091 1.97823 0.609307 0
M  V30 13 C -0.358827 3.03198 0.606309 0
M  V30 14 C 0.389708 3.04583 -0.735473 0
M  V30 15 N -2.64459 2.18285 0.902264 0
M  V30 16 N -3.29374 1.03248 0.818478 0
M  V30 17 C -2.45485 0.0457807 0.471236 0
M  V30 18 C -2.72171 -1.37026 0.263068 0
M  V30 19 O -1.77307 -2.15892 -0.0693205 0
M  V30 20 N -4.0298 -1.86362 0.430236 0
M  V30 21 N -4.29039 -3.2116 0.233375 0
M  V30 22 H 4.45951 -3.04466 0.750284 0
M  V30 23 H 4.14777 -3.51252 -0.83683 0
M  V30 24 H 1.88337 -2.15671 0.0663941 0
M  V30 25 H -0.828674 4.00038 0.8023 0
M  V30 26 H 0.44331 2.83655 1.36864 0
M  V30 27 H -0.32846 2.64699 -1.48484 0
M  V30 28 H 0.709798 4.0559 -0.997526 0
M  V30 29 H -4.79656 -1.23336 0.697561 0
M  V30 30 H -5.04641 -3.59104 0.816922 0
M  V30 31 H -4.31985 -3.48965 -0.757636 0
M  V30 END ATOM
M  V30 BEGIN BOND
M  V30 1 1 1 2
M  V30 2 1 2 3
M  V30 3 2 3 4
M  V30 4 1 3 5
M  V30 5 1 5 6
M  V30 6 2 6 7
M  V30 7 1 7 8
M  V30 8 1 8 9
M  V30 9 1 9 10
M  V30 10 1 10 11
M  V30 11 1 11 12
M  V30 12 1 12 13
M  V30 13 1 13 14
M  V30 14 1 12 15
M  V30 15 2 15 16
M  V30 16 1 16 17
M  V30 17 1 17 18
M  V30 18 2 18 19
M  V30 19 1 18 20
M  V30 20 1 20 21
M  V30 21 2 9 5
M  V30 22 2 17 11
M  V30 23 1 14 8
M  V30 24 1 1 22
M  V30 25 1 1 23
M  V30 26 1 2 24
M  V30 27 1 13 25
M  V30 28 1 13 26
M  V30 29 1 14 27
M  V30 30 1 14 28
M  V30 31 1 20 29
M  V30 32 1 21 30
M  V30 33 1 21 31
M  V30 END BOND
M  V30 END CTAB
M  END
