
     RDKit          3D

  0  0  0  0  0  0  0  0  0  0999 V3000
M  V30 BEGIN CTAB
M  V30 COUNTS 27 28 0 0 0
M  V30 BEGIN ATOM
M  V30 1 N -0.437477 2.45448 0.120328 0
M  V30 2 N -1.18092 1.32242 0.0447341 0
M  V30 3 C -0.641905 0.120522 0.667203 0
M  V30 4 C 0.697787 -0.134223 0.183581 0
M  V30 5 C 1.04215 -0.749329 -0.964604 0
M  V30 6 C 2.3879 -0.833259 -1.34704 0
M  V30 7 Cl 2.72761 -1.67436 -2.86524 0
M  V30 8 C 3.40078 -0.316589 -0.603011 0
M  V30 9 N 3.0351 0.301569 0.561079 0
M  V30 10 C 1.76899 0.402128 0.959526 0
M  V30 11 N 1.49465 0.985365 2.2114 0
M  V30 12 C -1.58712 -0.99308 0.380209 0
M  V30 13 C -1.99397 -1.40341 -1.01547 0
M  V30 14 C -2.98456 -0.900015 -0.0189676 0
M  V30 15 H -0.806363 3.20048 0.772621 0
M  V30 16 H -0.297719 2.87746 -0.832755 0
M  V30 17 H -1.33518 1.03383 -0.971112 0
M  V30 18 H -0.620186 0.311387 1.80706 0
M  V30 19 H 0.342117 -1.2062 -1.65147 0
M  V30 20 H 4.43649 -0.416629 -0.916251 0
M  V30 21 H 1.63586 1.97263 2.38562 0
M  V30 22 H 1.14149 0.354076 2.96134 0
M  V30 23 H -1.38106 -1.88451 1.11651 0
M  V30 24 H -1.82759 -2.46684 -1.21533 0
M  V30 25 H -1.86237 -0.770389 -1.88823 0
M  V30 26 H -3.70013 -1.68039 0.353463 0
M  V30 27 H -3.4544 0.0928678 -0.235197 0
M  V30 END ATOM
M  V30 BEGIN BOND
M  V30 1 1 1 2
M  V30 2 1 2 3
M  V30 3 1 3 4
M  V30 4 2 4 5
M  V30 5 1 5 6
M  V30 6 1 6 7
M  V30 7 2 6 8
M  V30 8 1 8 9
M  V30 9 2 9 10
M  V30 10 1 10 11
M  V30 11 1 3 12
M  V30 12 1 12 13
M  V30 13 1 13 14
M  V30 14 1 10 4
M  V30 15 1 14 12
M  V30 16 1 1 15
M  V30 17 1 1 16
M  V30 18 1 2 17
M  V30 19 1 3 18
M  V30 20 1 5 19
M  V30 21 1 8 20
M  V30 22 1 11 21
M  V30 23 1 11 22
M  V30 24 1 12 23
M  V30 25 1 13 24
M  V30 26 1 13 25
M  V30 27 1 14 26
M  V30 28 1 14 27
M  V30 END BOND
M  V30 END CTAB
M  END
