
     RDKit          3D

  0  0  0  0  0  0  0  0  0  0999 V3000
M  V30 BEGIN CTAB
M  V30 COUNTS 27 27 0 0 0
M  V30 BEGIN ATOM
M  V30 1 C -1.24095 -1.93973 -0.369731 0
M  V30 2 N -1.08286 -0.509923 -0.618872 0
M  V30 3 C 0.241374 0.00656251 -0.703635 0
M  V30 4 N 0.644034 0.626257 -1.85868 0
M  V30 5 C 1.8569 1.13805 -2.0453 0
M  V30 6 C 2.79141 1.04942 -1.01635 0
M  V30 7 C 2.46743 0.448097 0.162654 0
M  V30 8 C 1.16961 -0.074988 0.304304 0
M  V30 9 N 0.855293 -0.686639 1.53534 0
M  V30 10 N 3.37429 0.322766 1.25045 0
M  V30 11 C -2.27767 0.271468 -0.786823 0
M  V30 12 C -3.01906 0.360916 0.520236 0
M  V30 13 O -2.22109 0.966576 1.49156 0
M  V30 14 H -1.74527 -2.15354 0.57702 0
M  V30 15 H -1.86905 -2.40182 -1.18651 0
M  V30 16 H -0.270978 -2.48556 -0.373097 0
M  V30 17 H 2.15224 1.6305 -2.98302 0
M  V30 18 H 3.78134 1.45668 -1.13296 0
M  V30 19 H 1.29031 -0.253964 2.41377 0
M  V30 20 H 0.263662 -1.49733 1.70893 0
M  V30 21 H 3.97773 1.10419 1.51965 0
M  V30 22 H 3.41694 -0.575974 1.77166 0
M  V30 23 H -2.09518 1.26191 -1.24787 0
M  V30 24 H -2.98192 -0.250598 -1.4966 0
M  V30 25 H -3.26958 -0.68908 0.847671 0
M  V30 26 H -3.97491 0.914754 0.361278 0
M  V30 27 H -2.23405 1.961 1.35492 0
M  V30 END ATOM
M  V30 BEGIN BOND
M  V30 1 1 1 2
M  V30 2 1 2 3
M  V30 3 2 3 4
M  V30 4 1 4 5
M  V30 5 2 5 6
M  V30 6 1 6 7
M  V30 7 2 7 8
M  V30 8 1 8 9
M  V30 9 1 7 10
M  V30 10 1 2 11
M  V30 11 1 11 12
M  V30 12 1 12 13
M  V30 13 1 8 3
M  V30 14 1 1 14
M  V30 15 1 1 15
M  V30 16 1 1 16
M  V30 17 1 5 17
M  V30 18 1 6 18
M  V30 19 1 9 19
M  V30 20 1 9 20
M  V30 21 1 10 21
M  V30 22 1 10 22
M  V30 23 1 11 23
M  V30 24 1 11 24
M  V30 25 1 12 25
M  V30 26 1 12 26
M  V30 27 1 13 27
M  V30 END BOND
M  V30 END CTAB
M  END
