
     RDKit          3D

  0  0  0  0  0  0  0  0  0  0999 V3000
M  V30 BEGIN CTAB
M  V30 COUNTS 20 20 0 0 0
M  V30 BEGIN ATOM
M  V30 1 C -2.26672 -0.49545 -2.42617 0
M  V30 2 N -1.44995 -0.119251 -1.27161 0
M  V30 3 C -1.82534 0.720773 -0.283613 0
M  V30 4 C -0.814141 0.844955 0.633656 0
M  V30 5 C 0.211508 0.041041 0.169939 0
M  V30 6 N -0.227613 -0.51048 -0.9744 0
M  V30 7 C 1.49378 -0.135602 0.832227 0
M  V30 8 O 1.77099 0.444943 1.90312 0
M  V30 9 N 2.45865 -0.984559 0.256942 0
M  V30 10 N 3.69176 -1.15981 0.885765 0
M  V30 11 N -0.8429 1.64202 1.80786 0
M  V30 12 H -1.59975 -0.665262 -3.30554 0
M  V30 13 H -2.76451 -1.47854 -2.24615 0
M  V30 14 H -2.97469 0.321266 -2.6017 0
M  V30 15 H -2.7864 1.21639 -0.235435 0
M  V30 16 H 2.21896 -1.47256 -0.64807 0
M  V30 17 H 3.9764 -0.248695 1.30984 0
M  V30 18 H 3.55702 -1.84085 1.67246 0
M  V30 19 H -1.78642 1.80136 2.2596 0
M  V30 20 H -0.0406339 2.07831 2.26127 0
M  V30 END ATOM
M  V30 BEGIN BOND
M  V30 1 1 1 2
M  V30 2 1 2 3
M  V30 3 2 3 4
M  V30 4 1 4 5
M  V30 5 2 5 6
M  V30 6 1 5 7
M  V30 7 2 7 8
M  V30 8 1 7 9
M  V30 9 1 9 10
M  V30 10 1 4 11
M  V30 11 1 6 2
M  V30 12 1 1 12
M  V30 13 1 1 13
M  V30 14 1 1 14
M  V30 15 1 3 15
M  V30 16 1 9 16
M  V30 17 1 10 17
M  V30 18 1 10 18
M  V30 19 1 11 19
M  V30 20 1 11 20
M  V30 END BOND
M  V30 END CTAB
M  END
