
     RDKit          3D

  0  0  0  0  0  0  0  0  0  0999 V3000
M  V30 BEGIN CTAB
M  V30 COUNTS 53 55 0 0 0
M  V30 BEGIN ATOM
M  V30 1 C -4.68691 0.100889 2.25702 0
M  V30 2 C -5.42011 0.414775 0.973693 0
M  V30 3 O -4.90314 -0.365341 -0.0524648 0
M  V30 4 C -3.6246 -0.391787 -0.541975 0
M  V30 5 C -3.37082 -1.28362 -1.58 0
M  V30 6 O -4.40442 -2.07034 -2.04296 0
M  V30 7 C -4.19322 -2.98097 -3.08596 0
M  V30 8 C -2.1091 -1.36299 -2.11852 0
M  V30 9 C -1.08396 -0.569965 -1.64586 0
M  V30 10 C -1.31065 0.327425 -0.611832 0
M  V30 11 C -2.59564 0.397481 -0.0749426 0
M  V30 12 C -0.195425 1.17342 -0.114316 0
M  V30 13 C -0.638757 1.93436 1.0889 0
M  V30 14 S 0.640972 2.97285 1.74805 0
M  V30 15 C 1.19206 4.16855 0.569303 0
M  V30 16 O 1.81457 2.20367 2.23407 0
M  V30 17 O 0.0815972 3.72696 2.93582 0
M  V30 18 N 1.02614 0.424061 0.079635 0
M  V30 19 C 1.21041 -0.630448 1.01349 0
M  V30 20 O 0.350165 -1.09906 1.83425 0
M  V30 21 C 2.58749 -1.08425 0.856458 0
M  V30 22 C 3.23702 -0.359412 -0.119711 0
M  V30 23 C 2.25052 0.602437 -0.619038 0
M  V30 24 O 2.51667 1.44445 -1.54273 0
M  V30 25 C 4.54879 -0.610212 -0.443522 0
M  V30 26 N 5.1908 0.149662 -1.44986 0
M  V30 27 C 5.26792 -1.59282 0.190988 0
M  V30 28 N 6.62263 -1.86419 -0.131393 0
M  V30 29 C 4.58972 -2.31007 1.17218 0
M  V30 30 C 3.28639 -2.09021 1.52212 0
M  V30 31 H -5.3835 -0.421323 2.94096 0
M  V30 32 H -4.26244 1.02055 2.71076 0
M  V30 33 H -3.85175 -0.62861 2.05029 0
M  V30 34 H -6.5182 0.236311 1.13559 0
M  V30 35 H -5.30215 1.50752 0.785471 0
M  V30 36 H -3.31676 -3.64406 -2.85785 0
M  V30 37 H -5.05803 -3.66444 -3.17274 0
M  V30 38 H -3.9387 -2.46773 -4.03947 0
M  V30 39 H -1.94162 -2.07448 -2.93415 0
M  V30 40 H -0.118789 -0.688694 -2.11927 0
M  V30 41 H -2.78344 1.09291 0.725378 0
M  V30 42 H -0.0217215 1.93966 -0.92687 0
M  V30 43 H -1.07454 1.32844 1.89503 0
M  V30 44 H -1.45466 2.63284 0.743136 0
M  V30 45 H 2.21094 3.87393 0.181208 0
M  V30 46 H 0.459462 4.22197 -0.264599 0
M  V30 47 H 1.35621 5.14509 1.0703 0
M  V30 48 H 5.31957 -0.200188 -2.43401 0
M  V30 49 H 5.57831 1.11042 -1.27537 0
M  V30 50 H 7.26067 -2.18726 0.625322 0
M  V30 51 H 6.99227 -1.74912 -1.09871 0
M  V30 52 H 5.18175 -3.09218 1.66878 0
M  V30 53 H 2.79003 -2.66686 2.28992 0
M  V30 END ATOM
M  V30 BEGIN BOND
M  V30 1 1 1 2
M  V30 2 1 2 3
M  V30 3 1 3 4
M  V30 4 2 4 5
M  V30 5 1 5 6
M  V30 6 1 6 7
M  V30 7 1 5 8
M  V30 8 2 8 9
M  V30 9 1 9 10
M  V30 10 2 10 11
M  V30 11 1 10 12
M  V30 12 1 12 13
M  V30 13 1 13 14
M  V30 14 1 14 15
M  V30 15 2 14 16
M  V30 16 2 14 17
M  V30 17 1 12 18
M  V30 18 1 18 19
M  V30 19 2 19 20
M  V30 20 1 19 21
M  V30 21 2 21 22
M  V30 22 1 22 23
M  V30 23 2 23 24
M  V30 24 1 22 25
M  V30 25 1 25 26
M  V30 26 2 25 27
M  V30 27 1 27 28
M  V30 28 1 27 29
M  V30 29 2 29 30
M  V30 30 1 11 4
M  V30 31 1 23 18
M  V30 32 1 30 21
M  V30 33 1 1 31
M  V30 34 1 1 32
M  V30 35 1 1 33
M  V30 36 1 2 34
M  V30 37 1 2 35
M  V30 38 1 7 36
M  V30 39 1 7 37
M  V30 40 1 7 38
M  V30 41 1 8 39
M  V30 42 1 9 40
M  V30 43 1 11 41
M  V30 44 1 12 42
M  V30 45 1 13 43
M  V30 46 1 13 44
M  V30 47 1 15 45
M  V30 48 1 15 46
M  V30 49 1 15 47
M  V30 50 1 26 48
M  V30 51 1 26 49
M  V30 52 1 28 50
M  V30 53 1 28 51
M  V30 54 1 29 52
M  V30 55 1 30 53
M  V30 END BOND
M  V30 END CTAB
M  END
