
     RDKit          3D

  0  0  0  0  0  0  0  0  0  0999 V3000
M  V30 BEGIN CTAB
M  V30 COUNTS 31 33 0 0 0
M  V30 BEGIN ATOM
M  V30 1 N -5.64709 -1.05198 1.17239 0
M  V30 2 C -4.37377 -0.575657 0.702167 0
M  V30 3 N -3.5182 0.0632593 1.49637 0
M  V30 4 C -2.33529 0.492908 1.01474 0
M  V30 5 C -1.42286 1.16348 1.82408 0
M  V30 6 C -0.213726 1.60965 1.35613 0
M  V30 7 C 0.146588 1.4041 0.0381132 0
M  V30 8 S 1.72463 1.98369 -0.582024 0
M  V30 9 C 2.99247 0.754957 -0.394809 0
M  V30 10 C 3.73233 0.736769 0.76458 0
M  V30 11 C 4.72799 -0.183701 0.978445 0
M  V30 12 C 5.00297 -1.12302 0.00802803 0
M  V30 13 Br 6.38266 -2.39221 0.313903 0
M  V30 14 C 4.26069 -1.10343 -1.15314 0
M  V30 15 C 3.25485 -0.168217 -1.36118 0
M  V30 16 C -0.751306 0.738234 -0.77914 0
M  V30 17 C -1.96429 0.294084 -0.29771 0
M  V30 18 C -2.86357 -0.371448 -1.11151 0
M  V30 19 N -2.49919 -0.583455 -2.45878 0
M  V30 20 N -4.03161 -0.780771 -0.583959 0
M  V30 21 H -5.74644 -2.04581 1.46682 0
M  V30 22 H -6.48628 -0.432055 1.2307 0
M  V30 23 H -1.68215 1.33769 2.86407 0
M  V30 24 H 0.507437 2.13785 1.98951 0
M  V30 25 H 3.54733 1.4552 1.54739 0
M  V30 26 H 5.29267 -0.184573 1.88288 0
M  V30 27 H 4.49548 -1.85693 -1.90876 0
M  V30 28 H 2.68265 -0.163652 -2.27211 0
M  V30 29 H -0.483639 0.571204 -1.80814 0
M  V30 30 H -2.65051 -1.5218 -2.88887 0
M  V30 31 H -2.08083 0.164109 -3.05018 0
M  V30 END ATOM
M  V30 BEGIN BOND
M  V30 1 1 1 2
M  V30 2 2 2 3
M  V30 3 1 3 4
M  V30 4 2 4 5
M  V30 5 1 5 6
M  V30 6 2 6 7
M  V30 7 1 7 8
M  V30 8 1 8 9
M  V30 9 2 9 10
M  V30 10 1 10 11
M  V30 11 2 11 12
M  V30 12 1 12 13
M  V30 13 1 12 14
M  V30 14 2 14 15
M  V30 15 1 7 16
M  V30 16 2 16 17
M  V30 17 1 17 18
M  V30 18 1 18 19
M  V30 19 2 18 20
M  V30 20 1 20 2
M  V30 21 1 17 4
M  V30 22 1 15 9
M  V30 23 1 1 21
M  V30 24 1 1 22
M  V30 25 1 5 23
M  V30 26 1 6 24
M  V30 27 1 10 25
M  V30 28 1 11 26
M  V30 29 1 14 27
M  V30 30 1 15 28
M  V30 31 1 16 29
M  V30 32 1 19 30
M  V30 33 1 19 31
M  V30 END BOND
M  V30 END CTAB
M  END
