
     RDKit          3D

  0  0  0  0  0  0  0  0  0  0999 V3000
M  V30 BEGIN CTAB
M  V30 COUNTS 146 147 0 0 0
M  V30 BEGIN ATOM
M  V30 1 C -7.10353 1.69568 -3.00712 0
M  V30 2 O -7.89542 0.558864 -2.99972 0
M  V30 3 C -8.73274 0.519559 -1.90892 0 CFG=2
M  V30 4 C -8.27303 -0.65759 -1.02586 0 CFG=2
M  V30 5 C -6.92694 -0.320383 -0.597386 0
M  V30 6 C -5.77778 -0.945634 -0.649876 0
M  V30 7 C -4.56186 -0.290884 -0.109644 0
M  V30 8 C -3.38577 -0.849794 -0.143176 0
M  V30 9 C -2.18901 -0.116035 0.431967 0 CFG=2
M  V30 10 N -1.57157 0.738507 -0.556155 0
M  V30 11 C -1.5294 2.14878 -0.542315 0
M  V30 12 O -1.90508 2.78443 -1.58952 0
M  V30 13 C -1.08131 2.99496 0.593097 0 CFG=2
M  V30 14 C -0.709705 4.38701 0.123317 0
M  V30 15 C -0.251519 5.29111 1.21549 0
M  V30 16 C -1.31374 5.47947 2.27444 0
M  V30 17 N -0.748762 6.38484 3.26888 0
M  V30 18 C -0.526713 7.72612 2.88622 0
M  V30 19 N -1.51807 8.53425 2.80227 0
M  V30 20 N 0.781518 8.19426 2.59227 0
M  V30 21 N -0.088566 2.38847 1.41634 0
M  V30 22 C 1.2911 2.274 1.17686 0
M  V30 23 O 2.08882 2.47359 2.1314 0
M  V30 24 C 1.89684 1.93088 -0.135046 0
M  V30 25 C 3.42177 1.78109 -0.0179293 0 CFG=1
M  V30 26 N 3.8608 0.753005 -0.923746 0
M  V30 27 C 5.14011 0.087843 -0.79183 0
M  V30 28 O 5.32477 -0.750224 -1.7455 0
M  V30 29 C 6.0939 0.338518 0.282537 0 CFG=2
M  V30 30 C 7.38065 1.02273 -0.173092 0
M  V30 31 C 8.14037 0.222293 -1.202 0
M  V30 32 C 9.39743 0.980294 -1.5789 0
M  V30 33 N 9.13972 2.27083 -2.1434 0
M  V30 34 C 10.2221 3.08358 -2.53929 0
M  V30 35 N 10.5622 3.24919 -3.77655 0
M  V30 36 N 10.9711 3.74818 -1.5399 0
M  V30 37 N 6.37074 -0.749444 1.18899 0
M  V30 38 C 5.81056 -1.99245 1.3705 0
M  V30 39 O 5.16521 -2.16029 2.48668 0
M  V30 40 C 5.79312 -3.2126 0.531409 0 CFG=2
M  V30 41 N 5.57413 -4.41683 1.34864 0
M  V30 42 C 5.34911 -5.70379 0.877519 0
M  V30 43 O 5.81539 -6.65838 1.59426 0
M  V30 44 C 4.65193 -6.13324 -0.328501 0
M  V30 45 C 5.13483 -7.18898 -0.989055 0
M  V30 46 N 3.48528 -5.50587 -0.855135 0
M  V30 47 C 2.3472 -5.06923 -0.163369 0
M  V30 48 O 1.26096 -4.92468 -0.843559 0
M  V30 49 C 2.22615 -4.74726 1.26337 0
M  V30 50 C 0.775294 -4.79929 1.70877 0
M  V30 51 C 0.326315 -3.44131 2.21446 0 CFG=1
M  V30 52 N -1.10594 -3.30238 2.18507 0
M  V30 53 C -1.70252 -2.06813 1.84792 0
M  V30 54 O -2.73472 -1.69839 2.45601 0
M  V30 55 C -1.14777 -1.18871 0.795691 0 CFG=1
M  V30 56 C -0.844383 -2.01615 -0.419608 0
M  V30 57 C 0.761867 -3.33435 3.64176 0
M  V30 58 O -0.072603 -3.16393 4.5624 0
M  V30 59 O 2.13035 -3.43436 3.8817 0
M  V30 60 C 3.4729 -5.28464 -2.31108 0
M  V30 61 C 7.0907 -3.49714 -0.190635 0
M  V30 62 C 3.97497 3.11852 -0.390036 0
M  V30 63 O 4.70682 3.29012 -1.37067 0
M  V30 64 O 3.63636 4.19391 0.417308 0
M  V30 65 C -5.6629 -2.29065 -1.18732 0
M  V30 66 C -8.55133 -1.94289 -1.70792 0
M  V30 67 C -10.1551 0.541725 -2.259 0
M  V30 68 C -11.1259 0.552619 -1.15676 0
M  V30 69 C -11.7281 -0.566473 -0.660135 0
M  V30 70 C -12.6274 -0.507642 0.379956 0
M  V30 71 C -12.9637 0.686616 0.969739 0
M  V30 72 C -12.3442 1.81725 0.454897 0
M  V30 73 C -11.4487 1.78201 -0.575756 0
M  V30 74 H -7.75882 2.60366 -3.03064 0
M  V30 75 H -6.55502 1.68586 -3.98899 0
M  V30 76 H -6.42848 1.79971 -2.15928 0
M  V30 77 H -8.53227 1.43776 -1.27178 0
M  V30 78 H -8.923 -0.606939 -0.100746 0
M  V30 79 H -6.81112 0.703714 -0.0947514 0
M  V30 80 H -4.63595 0.70986 0.340835 0
M  V30 81 H -3.22252 -1.80095 -0.56923 0
M  V30 82 H -2.54148 0.391223 1.32572 0
M  V30 83 H -1.11021 0.26245 -1.36988 0
M  V30 84 H -2.01085 3.15134 1.21157 0
M  V30 85 H -1.67995 4.82439 -0.264159 0
M  V30 86 H -0.0432727 4.40595 -0.740561 0
M  V30 87 H -0.052851 6.28372 0.765827 0
M  V30 88 H 0.681841 4.97103 1.7062 0
M  V30 89 H -1.52155 4.48376 2.74234 0
M  V30 90 H -2.25388 5.88201 1.86092 0
M  V30 91 H -0.510912 6.08275 4.22469 0
M  V30 92 H -2.47255 8.2087 3.01237 0
M  V30 93 H 0.919774 9.13467 2.14196 0
M  V30 94 H 1.62216 7.64098 2.80473 0
M  V30 95 H -0.417579 1.96132 2.33711 0
M  V30 96 H 1.49287 0.987657 -0.559665 0
M  V30 97 H 1.64956 2.73311 -0.863411 0
M  V30 98 H 3.61013 1.53312 1.03459 0
M  V30 99 H 3.19013 0.500002 -1.71099 0
M  V30 100 H 5.59334 1.16964 0.90215 0
M  V30 101 H 8.03098 1.24016 0.720544 0
M  V30 102 H 7.18822 2.02082 -0.611502 0
M  V30 103 H 8.48242 -0.763193 -0.826901 0
M  V30 104 H 7.54788 0.156873 -2.13199 0
M  V30 105 H 9.88311 0.357829 -2.38108 0
M  V30 106 H 10.1113 1.03568 -0.730661 0
M  V30 107 H 8.17362 2.62672 -2.27179 0
M  V30 108 H 10.0443 2.7833 -4.5385 0
M  V30 109 H 11.544 4.59789 -1.79197 0
M  V30 110 H 10.982 3.43067 -0.544271 0
M  V30 111 H 7.18403 -0.504482 1.86329 0
M  V30 112 H 4.99426 -3.17239 -0.224488 0
M  V30 113 H 5.60015 -4.23036 2.39675 0
M  V30 114 H 4.6982 -7.59164 -1.89308 0
M  V30 115 H 6.00986 -7.67962 -0.606892 0
M  V30 116 H 2.80156 -5.49183 1.8443 0
M  V30 117 H 2.66337 -3.74363 1.50604 0
M  V30 118 H 0.687409 -5.54358 2.52541 0
M  V30 119 H 0.175302 -5.16418 0.87237 0
M  V30 120 H 0.773033 -2.67559 1.58431 0
M  V30 121 H -1.72786 -4.13739 2.41964 0
M  V30 122 H -0.257992 -0.624463 1.15403 0
M  V30 123 H -1.3649 -1.74193 -1.33225 0
M  V30 124 H -1.09019 -3.10003 -0.227464 0
M  V30 125 H 0.244008 -2.01936 -0.660968 0
M  V30 126 H 2.48518 -4.26922 4.3695 0
M  V30 127 H 4.23805 -5.8706 -2.84152 0
M  V30 128 H 3.59509 -4.18259 -2.46094 0
M  V30 129 H 2.48641 -5.55211 -2.74089 0
M  V30 130 H 7.97591 -3.11111 0.343274 0
M  V30 131 H 7.05117 -3.00719 -1.19592 0
M  V30 132 H 7.23654 -4.56224 -0.367983 0
M  V30 133 H 4.32923 4.71134 0.952215 0
M  V30 134 H -4.71893 -2.75816 -0.7562 0
M  V30 135 H -5.5235 -2.36123 -2.27877 0
M  V30 136 H -6.43084 -3.02066 -0.805302 0
M  V30 137 H -7.81367 -2.14332 -2.50294 0
M  V30 138 H -8.64614 -2.82728 -1.04695 0
M  V30 139 H -9.52024 -1.8689 -2.32658 0
M  V30 140 H -10.3388 1.50953 -2.82861 0
M  V30 141 H -10.468 -0.236777 -2.99809 0
M  V30 142 H -11.5302 -1.5708 -1.07723 0
M  V30 143 H -13.0882 -1.40654 0.755271 0
M  V30 144 H -13.6702 0.751244 1.78938 0
M  V30 145 H -12.5952 2.79079 0.910876 0
M  V30 146 H -10.9771 2.68395 -0.959135 0
M  V30 END ATOM
M  V30 BEGIN BOND
M  V30 1 1 1 2
M  V30 2 1 2 3
M  V30 3 1 3 4
M  V30 4 1 4 5
M  V30 5 2 5 6
M  V30 6 1 6 7
M  V30 7 2 7 8
M  V30 8 1 8 9
M  V30 9 1 9 10
M  V30 10 1 10 11
M  V30 11 2 11 12
M  V30 12 1 11 13
M  V30 13 1 13 14
M  V30 14 1 14 15
M  V30 15 1 15 16
M  V30 16 1 16 17
M  V30 17 1 17 18
M  V30 18 2 18 19 CFG=2
M  V30 19 1 18 20
M  V30 20 1 13 21
M  V30 21 1 21 22
M  V30 22 2 22 23
M  V30 23 1 22 24
M  V30 24 1 24 25
M  V30 25 1 25 26
M  V30 26 1 26 27
M  V30 27 2 27 28
M  V30 28 1 27 29
M  V30 29 1 29 30
M  V30 30 1 30 31
M  V30 31 1 31 32
M  V30 32 1 32 33
M  V30 33 1 33 34
M  V30 34 2 34 35 CFG=2
M  V30 35 1 34 36
M  V30 36 1 29 37
M  V30 37 1 37 38
M  V30 38 2 38 39
M  V30 39 1 38 40
M  V30 40 1 40 41
M  V30 41 1 41 42
M  V30 42 2 42 43
M  V30 43 1 42 44
M  V30 44 2 44 45 CFG=2
M  V30 45 1 44 46
M  V30 46 1 46 47
M  V30 47 2 47 48
M  V30 48 1 47 49
M  V30 49 1 49 50
M  V30 50 1 50 51
M  V30 51 1 51 52
M  V30 52 1 52 53
M  V30 53 2 53 54
M  V30 54 1 53 55
M  V30 55 1 55 56
M  V30 56 1 51 57
M  V30 57 2 57 58
M  V30 58 1 57 59
M  V30 59 1 46 60
M  V30 60 1 40 61
M  V30 61 1 25 62
M  V30 62 2 62 63
M  V30 63 1 62 64
M  V30 64 1 6 65
M  V30 65 1 4 66
M  V30 66 1 3 67
M  V30 67 1 67 68
M  V30 68 2 68 69
M  V30 69 1 69 70
M  V30 70 2 70 71
M  V30 71 1 71 72
M  V30 72 2 72 73
M  V30 73 1 55 9
M  V30 74 1 73 68
M  V30 75 1 1 74
M  V30 76 1 1 75
M  V30 77 1 1 76
M  V30 78 1 3 77 CFG=1
M  V30 79 1 4 78 CFG=1
M  V30 80 1 5 79
M  V30 81 1 7 80
M  V30 82 1 8 81
M  V30 83 1 9 82 CFG=1
M  V30 84 1 10 83
M  V30 85 1 13 84 CFG=1
M  V30 86 1 14 85
M  V30 87 1 14 86
M  V30 88 1 15 87
M  V30 89 1 15 88
M  V30 90 1 16 89
M  V30 91 1 16 90
M  V30 92 1 17 91
M  V30 93 1 19 92
M  V30 94 1 20 93
M  V30 95 1 20 94
M  V30 96 1 21 95
M  V30 97 1 24 96
M  V30 98 1 24 97
M  V30 99 1 25 98 CFG=1
M  V30 100 1 26 99
M  V30 101 1 29 100 CFG=1
M  V30 102 1 30 101
M  V30 103 1 30 102
M  V30 104 1 31 103
M  V30 105 1 31 104
M  V30 106 1 32 105
M  V30 107 1 32 106
M  V30 108 1 33 107
M  V30 109 1 35 108
M  V30 110 1 36 109
M  V30 111 1 36 110
M  V30 112 1 37 111
M  V30 113 1 40 112 CFG=3
M  V30 114 1 41 113
M  V30 115 1 45 114
M  V30 116 1 45 115
M  V30 117 1 49 116
M  V30 118 1 49 117
M  V30 119 1 50 118
M  V30 120 1 50 119
M  V30 121 1 51 120 CFG=3
M  V30 122 1 52 121
M  V30 123 1 55 122 CFG=1
M  V30 124 1 56 123
M  V30 125 1 56 124
M  V30 126 1 56 125
M  V30 127 1 59 126
M  V30 128 1 60 127
M  V30 129 1 60 128
M  V30 130 1 60 129
M  V30 131 1 61 130
M  V30 132 1 61 131
M  V30 133 1 61 132
M  V30 134 1 64 133
M  V30 135 1 65 134
M  V30 136 1 65 135
M  V30 137 1 65 136
M  V30 138 1 66 137
M  V30 139 1 66 138
M  V30 140 1 66 139
M  V30 141 1 67 140
M  V30 142 1 67 141
M  V30 143 1 69 142
M  V30 144 1 70 143
M  V30 145 1 71 144
M  V30 146 1 72 145
M  V30 147 1 73 146
M  V30 END BOND
M  V30 END CTAB
M  END
