
     RDKit          3D

  0  0  0  0  0  0  0  0  0  0999 V3000
M  V30 BEGIN CTAB
M  V30 COUNTS 29 30 0 0 0
M  V30 BEGIN ATOM
M  V30 1 N -4.39914 0.926525 1.29759 0
M  V30 2 C -3.28788 0.706607 0.421913 0
M  V30 3 C -3.30779 -0.631424 -0.26316 0
M  V30 4 C -1.86625 -0.7728 -0.73103 0
M  V30 5 N -1.10209 0.0489155 0.184218 0
M  V30 6 C -1.9646 0.626706 1.19354 0
M  V30 7 C 0.300494 0.259602 0.103594 0
M  V30 8 O 0.884956 1.00616 0.963899 0
M  V30 9 C 1.09418 -0.379073 -0.970459 0
M  V30 10 N 2.47835 0.00618362 -0.809717 0
M  V30 11 N 3.07468 1.07355 -1.35192 0
M  V30 12 N 4.3335 1.12377 -1.00212 0
M  V30 13 C 4.5993 0.0702784 -0.206424 0
M  V30 14 C 3.41581 -0.633887 -0.0896499 0
M  V30 15 N 5.84001 -0.275598 0.406594 0
M  V30 16 H -4.91373 1.81611 1.09813 0
M  V30 17 H -5.00214 0.110504 1.45736 0
M  V30 18 H -3.19782 1.49648 -0.378434 0
M  V30 19 H -4.0165 -0.66591 -1.11643 0
M  V30 20 H -3.52731 -1.42525 0.500396 0
M  V30 21 H -1.79636 -0.358552 -1.75874 0
M  V30 22 H -1.53767 -1.83571 -0.708767 0
M  V30 23 H -2.13219 -0.0494147 2.04114 0
M  V30 24 H -1.64163 1.6281 1.51894 0
M  V30 25 H 0.750174 -0.00256888 -1.96048 0
M  V30 26 H 1.02111 -1.49242 -0.947822 0
M  V30 27 H 3.31363 -1.54851 0.499604 0
M  V30 28 H 5.82272 -0.835797 1.28603 0
M  V30 29 H 6.76419 0.00743821 0.0135177 0
M  V30 END ATOM
M  V30 BEGIN BOND
M  V30 1 1 1 2
M  V30 2 1 2 3
M  V30 3 1 3 4
M  V30 4 1 4 5
M  V30 5 1 5 6
M  V30 6 1 5 7
M  V30 7 2 7 8
M  V30 8 1 7 9
M  V30 9 1 9 10
M  V30 10 1 10 11
M  V30 11 2 11 12
M  V30 12 1 12 13
M  V30 13 2 13 14
M  V30 14 1 13 15
M  V30 15 1 6 2
M  V30 16 1 14 10
M  V30 17 1 1 16
M  V30 18 1 1 17
M  V30 19 1 2 18
M  V30 20 1 3 19
M  V30 21 1 3 20
M  V30 22 1 4 21
M  V30 23 1 4 22
M  V30 24 1 6 23
M  V30 25 1 6 24
M  V30 26 1 9 25
M  V30 27 1 9 26
M  V30 28 1 14 27
M  V30 29 1 15 28
M  V30 30 1 15 29
M  V30 END BOND
M  V30 END CTAB
M  END
