
     RDKit          3D

  0  0  0  0  0  0  0  0  0  0999 V3000
M  V30 BEGIN CTAB
M  V30 COUNTS 16 15 0 0 0
M  V30 BEGIN ATOM
M  V30 1 N 0.303551 -0.957502 -1.77305 0
M  V30 2 C -0.451437 -0.3714 -0.721631 0
M  V30 3 N 0.061019 -0.00911445 0.382986 0
M  V30 4 C 1.43227 -0.136695 0.714898 0
M  V30 5 N 1.88549 -1.1889 1.30468 0
M  V30 6 N 2.31201 0.923296 0.38419 0
M  V30 7 S -2.20277 -0.137862 -0.973971 0
M  V30 8 C -2.99215 0.616086 0.45599 0
M  V30 9 F -2.59382 1.8949 0.698228 0
M  V30 10 F -2.72049 -0.185925 1.56744 0
M  V30 11 F -4.35991 0.615169 0.223084 0
M  V30 12 H -0.0142364 -0.943826 -2.76547 0
M  V30 13 H 1.21474 -1.42679 -1.57694 0
M  V30 14 H 2.90012 -1.26244 1.54029 0
M  V30 15 H 2.61473 1.00908 -0.60496 0
M  V30 16 H 2.6109 1.56192 1.14423 0
M  V30 END ATOM
M  V30 BEGIN BOND
M  V30 1 1 1 2
M  V30 2 2 2 3 CFG=2
M  V30 3 1 3 4
M  V30 4 2 4 5 CFG=2
M  V30 5 1 4 6
M  V30 6 1 2 7
M  V30 7 1 7 8
M  V30 8 1 8 9
M  V30 9 1 8 10
M  V30 10 1 8 11
M  V30 11 1 1 12
M  V30 12 1 1 13
M  V30 13 1 5 14
M  V30 14 1 6 15
M  V30 15 1 6 16
M  V30 END BOND
M  V30 END CTAB
M  END
