
     RDKit          3D

  0  0  0  0  0  0  0  0  0  0999 V3000
M  V30 BEGIN CTAB
M  V30 COUNTS 50 50 0 0 0
M  V30 BEGIN ATOM
M  V30 1 C -3.63469 1.67703 -0.470549 0
M  V30 2 C -3.35626 0.308046 -0.953747 0
M  V30 3 C -2.89593 -0.697307 0.0390406 0
M  V30 4 C -1.63099 -0.317757 0.720427 0
M  V30 5 O -1.59311 -0.3401 1.98382 0
M  V30 6 N -0.458426 0.0683224 0.0485319 0
M  V30 7 C 0.715141 0.411577 0.810168 0
M  V30 8 C 1.87893 0.80274 -0.113574 0
M  V30 9 N 1.37139 1.96332 -0.867022 0
M  V30 10 C 2.20512 -0.303555 -1.01365 0
M  V30 11 C 3.57099 -0.867752 -0.982095 0
M  V30 12 C 4.68768 0.0903055 -0.835518 0
M  V30 13 C 5.07778 0.132621 0.644005 0
M  V30 14 C 3.79541 0.262206 1.42606 0
M  V30 15 C 2.97051 1.31229 0.765596 0
M  V30 16 C -2.68635 -2.00336 -0.725202 0
M  V30 17 N -1.7329 -1.93507 -1.77079 0
M  V30 18 C -3.948 -1.05366 1.0706 0
M  V30 19 C -4.43452 0.0645336 1.90796 0
M  V30 20 H -2.86109 2.08935 0.21064 0
M  V30 21 H -4.66644 1.84774 -0.100204 0
M  V30 22 H -3.57317 2.36212 -1.37336 0
M  V30 23 H -2.6311 0.374804 -1.81683 0
M  V30 24 H -4.29199 -0.081377 -1.4292 0
M  V30 25 H -0.451244 0.108486 -0.989186 0
M  V30 26 H 1.04309 -0.405552 1.47722 0
M  V30 27 H 0.436211 1.26119 1.47354 0
M  V30 28 H 0.946588 1.56305 -1.73748 0
M  V30 29 H 2.16343 2.59025 -1.06954 0
M  V30 30 H 1.98033 0.00431455 -2.07878 0
M  V30 31 H 1.49112 -1.16663 -0.847869 0
M  V30 32 H 3.72744 -1.42226 -1.95685 0
M  V30 33 H 3.71314 -1.67856 -0.207094 0
M  V30 34 H 5.60296 -0.33172 -1.34908 0
M  V30 35 H 4.53499 1.0771 -1.26357 0
M  V30 36 H 5.63599 -0.791496 0.875762 0
M  V30 37 H 5.68374 1.03741 0.861735 0
M  V30 38 H 4.03118 0.540248 2.49446 0
M  V30 39 H 3.21139 -0.661513 1.48641 0
M  V30 40 H 2.47685 1.90385 1.59392 0
M  V30 41 H 3.58751 2.09135 0.228975 0
M  V30 42 H -3.69091 -2.21976 -1.19473 0
M  V30 43 H -2.52661 -2.84981 -0.0177462 0
M  V30 44 H -2.07448 -1.59246 -2.67338 0
M  V30 45 H -1.18751 -2.8172 -1.88927 0
M  V30 46 H -3.54555 -1.87197 1.68005 0
M  V30 47 H -4.83871 -1.4897 0.534255 0
M  V30 48 H -4.60922 -0.362426 2.94629 0
M  V30 49 H -3.75558 0.90012 2.07578 0
M  V30 50 H -5.46412 0.416624 1.62232 0
M  V30 END ATOM
M  V30 BEGIN BOND
M  V30 1 1 1 2
M  V30 2 1 2 3
M  V30 3 1 3 4
M  V30 4 2 4 5
M  V30 5 1 4 6
M  V30 6 1 6 7
M  V30 7 1 7 8
M  V30 8 1 8 9
M  V30 9 1 8 10
M  V30 10 1 10 11
M  V30 11 1 11 12
M  V30 12 1 12 13
M  V30 13 1 13 14
M  V30 14 1 14 15
M  V30 15 1 3 16
M  V30 16 1 16 17
M  V30 17 1 3 18
M  V30 18 1 18 19
M  V30 19 1 15 8
M  V30 20 1 1 20
M  V30 21 1 1 21
M  V30 22 1 1 22
M  V30 23 1 2 23
M  V30 24 1 2 24
M  V30 25 1 6 25
M  V30 26 1 7 26
M  V30 27 1 7 27
M  V30 28 1 9 28
M  V30 29 1 9 29
M  V30 30 1 10 30
M  V30 31 1 10 31
M  V30 32 1 11 32
M  V30 33 1 11 33
M  V30 34 1 12 34
M  V30 35 1 12 35
M  V30 36 1 13 36
M  V30 37 1 13 37
M  V30 38 1 14 38
M  V30 39 1 14 39
M  V30 40 1 15 40
M  V30 41 1 15 41
M  V30 42 1 16 42
M  V30 43 1 16 43
M  V30 44 1 17 44
M  V30 45 1 17 45
M  V30 46 1 18 46
M  V30 47 1 18 47
M  V30 48 1 19 48
M  V30 49 1 19 49
M  V30 50 1 19 50
M  V30 END BOND
M  V30 END CTAB
M  END
