
     RDKit          3D

  0  0  0  0  0  0  0  0  0  0999 V3000
M  V30 BEGIN CTAB
M  V30 COUNTS 47 48 0 0 0
M  V30 BEGIN ATOM
M  V30 1 O -2.36198 3.06695 1.05507 0
M  V30 2 C -3.04361 1.84285 1.26967 0
M  V30 3 C -2.03923 0.714967 1.18951 0
M  V30 4 O -2.58755 -0.522069 1.39137 0
M  V30 5 C -3.54931 -0.845162 0.480363 0
M  V30 6 O -4.08867 -2.0952 0.805603 0
M  V30 7 C -2.85037 -0.979189 -0.880821 0
M  V30 8 C -2.23887 0.363016 -1.22168 0
M  V30 9 C -1.3047 0.847058 -0.141549 0
M  V30 10 O -0.170128 0.115447 -0.204006 0
M  V30 11 C 1.01656 0.767501 -0.383992 0
M  V30 12 O 1.63309 0.71208 0.846941 0
M  V30 13 C 2.43857 -0.298269 1.14533 0
M  V30 14 C 3.2217 0.0560719 2.41091 0
M  V30 15 O 2.25989 0.261789 3.40826 0
M  V30 16 C 3.34837 -0.813488 0.0704592 0
M  V30 17 C 2.80602 -0.744798 -1.30137 0
M  V30 18 C 1.8173 0.367708 -1.54115 0
M  V30 19 N 2.5326 1.52038 -2.12075 0
M  V30 20 O 2.24472 -1.98564 -1.69369 0
M  V30 21 O 3.69519 -2.16121 0.328952 0
M  V30 22 O -1.65367 0.239841 -2.47095 0
M  V30 23 N -1.87725 -2.02169 -0.765744 0
M  V30 24 H -2.84014 3.64698 0.428279 0
M  V30 25 H -3.48545 1.93627 2.28418 0
M  V30 26 H -3.80694 1.7858 0.466582 0
M  V30 27 H -1.32692 0.891589 2.02774 0
M  V30 28 H -4.37315 -0.142084 0.349965 0
M  V30 29 H -4.81263 -1.98575 1.46175 0
M  V30 30 H -3.62607 -1.205 -1.61134 0
M  V30 31 H -3.10143 1.05623 -1.36395 0
M  V30 32 H -1.1935 1.94098 -0.275903 0
M  V30 33 H 0.768183 1.86911 -0.489041 0
M  V30 34 H 1.81208 -1.17279 1.46037 0
M  V30 35 H 3.86251 0.944212 2.25733 0
M  V30 36 H 3.82654 -0.831523 2.75214 0
M  V30 37 H 2.66359 0.466931 4.28411 0
M  V30 38 H 4.31119 -0.250933 0.175937 0
M  V30 39 H 3.64203 -0.586069 -2.01565 0
M  V30 40 H 1.17024 0.00889429 -2.36291 0
M  V30 41 H 3.32504 1.16559 -2.69875 0
M  V30 42 H 2.83235 2.18875 -1.38988 0
M  V30 43 H 1.96887 -1.82774 -2.65035 0
M  V30 44 H 4.26224 -2.48073 -0.40216 0
M  V30 45 H -1.21232 -0.60785 -2.63469 0
M  V30 46 H -1.69001 -2.50336 -1.66207 0
M  V30 47 H -2.22498 -2.71646 -0.0684327 0
M  V30 END ATOM
M  V30 BEGIN BOND
M  V30 1 1 1 2
M  V30 2 1 2 3
M  V30 3 1 3 4
M  V30 4 1 4 5
M  V30 5 1 5 6
M  V30 6 1 5 7
M  V30 7 1 7 8
M  V30 8 1 8 9
M  V30 9 1 9 10
M  V30 10 1 10 11
M  V30 11 1 11 12
M  V30 12 1 12 13
M  V30 13 1 13 14
M  V30 14 1 14 15
M  V30 15 1 13 16
M  V30 16 1 16 17
M  V30 17 1 17 18
M  V30 18 1 18 19
M  V30 19 1 17 20
M  V30 20 1 16 21
M  V30 21 1 8 22
M  V30 22 1 7 23
M  V30 23 1 9 3
M  V30 24 1 18 11
M  V30 25 1 1 24
M  V30 26 1 2 25
M  V30 27 1 2 26
M  V30 28 1 3 27
M  V30 29 1 5 28
M  V30 30 1 6 29
M  V30 31 1 7 30
M  V30 32 1 8 31
M  V30 33 1 9 32
M  V30 34 1 11 33
M  V30 35 1 13 34
M  V30 36 1 14 35
M  V30 37 1 14 36
M  V30 38 1 15 37
M  V30 39 1 16 38
M  V30 40 1 17 39
M  V30 41 1 18 40
M  V30 42 1 19 41
M  V30 43 1 19 42
M  V30 44 1 20 43
M  V30 45 1 21 44
M  V30 46 1 22 45
M  V30 47 1 23 46
M  V30 48 1 23 47
M  V30 END BOND
M  V30 END CTAB
M  END
