
     RDKit          3D

  0  0  0  0  0  0  0  0  0  0999 V3000
M  V30 BEGIN CTAB
M  V30 COUNTS 18 18 0 0 0
M  V30 BEGIN ATOM
M  V30 1 N -2.5715 -0.677672 0.0558235 0
M  V30 2 C -1.16045 -0.506534 0.0392881 0
M  V30 3 C -0.660204 0.788754 -0.0621498 0
M  V30 4 N -1.496 1.92929 -0.148517 0
M  V30 5 C 0.708171 0.938924 -0.0769334 0
M  V30 6 C 1.57882 -0.11437 0.00260424 0
M  V30 7 C 1.0937 -1.40846 0.103914 0
M  V30 8 C -0.278572 -1.57027 0.119611 0
M  V30 9 N 2.9978 0.0572811 -0.0139519 0 CHG=1
M  V30 10 O 3.85462 -1.01247 0.0668789 0 CHG=-1
M  V30 11 O 3.53095 1.18041 -0.102122 0
M  V30 12 H -3.06286 -0.497527 0.954639 0
M  V30 13 H -3.14734 -0.967569 -0.757163 0
M  V30 14 H -1.41915 2.73759 0.493527 0
M  V30 15 H -2.24789 2.00574 -0.885594 0
M  V30 16 H 1.15415 1.93215 -0.154849 0
M  V30 17 H 1.79207 -2.23422 0.166232 0
M  V30 18 H -0.666329 -2.58105 0.198761 0
M  V30 END ATOM
M  V30 BEGIN BOND
M  V30 1 1 1 2
M  V30 2 2 2 3
M  V30 3 1 3 4
M  V30 4 1 3 5
M  V30 5 2 5 6
M  V30 6 1 6 7
M  V30 7 2 7 8
M  V30 8 1 6 9
M  V30 9 1 9 10
M  V30 10 2 9 11
M  V30 11 1 8 2
M  V30 12 1 1 12
M  V30 13 1 1 13
M  V30 14 1 4 14
M  V30 15 1 4 15
M  V30 16 1 5 16
M  V30 17 1 7 17
M  V30 18 1 8 18
M  V30 END BOND
M  V30 END CTAB
M  END
