
     RDKit          3D

  0  0  0  0  0  0  0  0  0  0999 V3000
M  V30 BEGIN CTAB
M  V30 COUNTS 34 35 0 0 0
M  V30 BEGIN ATOM
M  V30 1 O -0.214435 -0.264126 -1.23867 0
M  V30 2 C -0.628317 0.803583 -0.768419 0
M  V30 3 C 0.278941 1.99497 -0.96989 0
M  V30 4 S 1.76863 1.4722 -1.78748 0
M  V30 5 C 2.79633 0.39487 -0.771389 0
M  V30 6 N 3.72892 0.916872 0.0447409 0
M  V30 7 C 4.53234 0.179901 0.824017 0
M  V30 8 N 5.50457 0.761651 1.67297 0
M  V30 9 N 4.36302 -1.17185 0.75636 0
M  V30 10 C 3.43614 -1.72958 -0.0523826 0
M  V30 11 N 2.66221 -0.935275 -0.808332 0
M  V30 12 N 3.25426 -3.13737 -0.128374 0
M  V30 13 C -0.433985 3.10947 -1.65088 0
M  V30 14 N -1.84217 0.922206 -0.0975486 0
M  V30 15 C -2.77922 -0.078543 0.163945 0
M  V30 16 C -2.67708 -1.40853 -0.202976 0
M  V30 17 C -3.68179 -2.34109 0.110715 0
M  V30 18 C -4.79773 -1.93934 0.797162 0
M  V30 19 C -4.93177 -0.64027 1.17376 0
M  V30 20 C -3.9427 0.256453 0.859928 0
M  V30 21 Cl -4.12337 1.93579 1.35141 0
M  V30 22 F -5.78884 -2.80278 1.1197 0
M  V30 23 H 0.510735 2.33604 0.0690845 0
M  V30 24 H 6.26159 1.36048 1.30487 0
M  V30 25 H 5.45009 0.578436 2.68833 0
M  V30 26 H 3.25652 -3.73535 0.713735 0
M  V30 27 H 3.11591 -3.56926 -1.06146 0
M  V30 28 H 0.311854 3.81045 -2.06846 0
M  V30 29 H -1.09055 2.78565 -2.48069 0
M  V30 30 H -1.04357 3.6545 -0.931914 0
M  V30 31 H -2.06513 1.9044 0.250772 0
M  V30 32 H -1.82175 -1.74842 -0.736793 0
M  V30 33 H -3.57879 -3.37818 -0.187642 0
M  V30 34 H -5.79085 -0.297985 1.70978 0
M  V30 END ATOM
M  V30 BEGIN BOND
M  V30 1 2 1 2
M  V30 2 1 2 3
M  V30 3 1 3 4
M  V30 4 1 4 5
M  V30 5 2 5 6
M  V30 6 1 6 7
M  V30 7 1 7 8
M  V30 8 2 7 9
M  V30 9 1 9 10
M  V30 10 2 10 11
M  V30 11 1 10 12
M  V30 12 1 3 13
M  V30 13 1 2 14
M  V30 14 1 14 15
M  V30 15 2 15 16
M  V30 16 1 16 17
M  V30 17 2 17 18
M  V30 18 1 18 19
M  V30 19 2 19 20
M  V30 20 1 20 21
M  V30 21 1 18 22
M  V30 22 1 11 5
M  V30 23 1 20 15
M  V30 24 1 3 23
M  V30 25 1 8 24
M  V30 26 1 8 25
M  V30 27 1 12 26
M  V30 28 1 12 27
M  V30 29 1 13 28
M  V30 30 1 13 29
M  V30 31 1 13 30
M  V30 32 1 14 31
M  V30 33 1 16 32
M  V30 34 1 17 33
M  V30 35 1 19 34
M  V30 END BOND
M  V30 END CTAB
M  END
