
     RDKit          3D

  0  0  0  0  0  0  0  0  0  0999 V3000
M  V30 BEGIN CTAB
M  V30 COUNTS 22 22 0 0 0
M  V30 BEGIN ATOM
M  V30 1 C 2.62501 -0.0582146 -1.51466 0
M  V30 2 C 2.73351 -1.1307 -0.471842 0
M  V30 3 O 1.4703 -1.72066 -0.305823 0
M  V30 4 C 0.352932 -1.00695 0.0961145 0
M  V30 5 C -0.850055 -1.70855 0.225238 0
M  V30 6 C -2.01799 -1.08967 0.619137 0
M  V30 7 C -1.94084 0.265261 0.881437 0
M  V30 8 N -3.09909 0.966185 1.2901 0
M  V30 9 C -0.762972 0.975999 0.759926 0
M  V30 10 N -0.751339 2.35925 1.04297 0
M  V30 11 N 0.323898 0.286034 0.369811 0
M  V30 12 H 1.78508 -0.318852 -2.18618 0
M  V30 13 H 2.44561 0.909039 -0.978894 0
M  V30 14 H 3.5304 0.0296465 -2.14544 0
M  V30 15 H 3.5077 -1.85145 -0.792949 0
M  V30 16 H 2.99946 -0.679259 0.528928 0
M  V30 17 H -0.857027 -2.76092 0.00946185 0
M  V30 18 H -2.96212 -1.61022 0.72669 0
M  V30 19 H -3.18595 1.25777 2.27238 0
M  V30 20 H -3.8471 1.18221 0.611897 0
M  V30 21 H -1.5995 2.91416 0.850605 0
M  V30 22 H 0.10008 2.78988 1.4352 0
M  V30 END ATOM
M  V30 BEGIN BOND
M  V30 1 1 1 2
M  V30 2 1 2 3
M  V30 3 1 3 4
M  V30 4 2 4 5
M  V30 5 1 5 6
M  V30 6 2 6 7
M  V30 7 1 7 8
M  V30 8 1 7 9
M  V30 9 1 9 10
M  V30 10 2 9 11
M  V30 11 1 11 4
M  V30 12 1 1 12
M  V30 13 1 1 13
M  V30 14 1 1 14
M  V30 15 1 2 15
M  V30 16 1 2 16
M  V30 17 1 5 17
M  V30 18 1 6 18
M  V30 19 1 8 19
M  V30 20 1 8 20
M  V30 21 1 10 21
M  V30 22 1 10 22
M  V30 END BOND
M  V30 END CTAB
M  END
