
     RDKit          3D

  0  0  0  0  0  0  0  0  0  0999 V3000
M  V30 BEGIN CTAB
M  V30 COUNTS 45 44 0 0 0
M  V30 BEGIN ATOM
M  V30 1 N -6.34298 -1.00795 -1.40227 0
M  V30 2 C -6.39788 -0.00935366 -0.373892 0
M  V30 3 C -5.14957 -0.00655941 0.451495 0
M  V30 4 C -3.94604 0.303328 -0.387347 0
M  V30 5 N -2.74245 0.299916 0.429944 0
M  V30 6 C -2.63674 1.38703 1.34988 0
M  V30 7 C -1.405 1.19108 2.19906 0
M  V30 8 C -0.178968 1.15113 1.31524 0
M  V30 9 N -0.210131 0.123419 0.340473 0
M  V30 10 C 0.997096 0.0288678 -0.399823 0
M  V30 11 C 2.08905 -0.535634 0.477521 0
M  V30 12 N 3.29917 -0.630123 -0.324221 0
M  V30 13 C 4.36597 -1.27753 0.458132 0
M  V30 14 C 5.58658 -1.27665 -0.443703 0
M  V30 15 C 5.8741 0.201755 -0.719861 0
M  V30 16 N 7.03597 0.316502 -1.56095 0
M  V30 17 H -5.41075 -1.45987 -1.40441 0
M  V30 18 H -7.02941 -1.78104 -1.11851 0
M  V30 19 H -7.31548 -0.128806 0.262323 0
M  V30 20 H -6.55978 0.980463 -0.876093 0
M  V30 21 H -5.01902 -0.992125 0.993499 0
M  V30 22 H -5.26611 0.7287 1.29924 0
M  V30 23 H -3.76915 -0.443529 -1.17063 0
M  V30 24 H -4.05801 1.33165 -0.847977 0
M  V30 25 H -2.81164 -0.596501 1.00061 0
M  V30 26 H -3.54407 1.5209 1.9942 0
M  V30 27 H -2.54172 2.36819 0.813972 0
M  V30 28 H -1.35915 2.02579 2.92405 0
M  V30 29 H -1.50572 0.194456 2.70912 0
M  V30 30 H -0.076885 2.12211 0.744723 0
M  V30 31 H 0.694196 1.14202 1.99958 0
M  V30 32 H -0.440906 -0.809202 0.76136 0
M  V30 33 H 1.33865 1.06887 -0.681759 0
M  V30 34 H 0.883552 -0.567077 -1.33257 0
M  V30 35 H 1.8136 -1.4996 0.930538 0
M  V30 36 H 2.25768 0.16334 1.32228 0
M  V30 37 H 3.11043 -1.31545 -1.1165 0
M  V30 38 H 4.55687 -0.767814 1.41833 0
M  V30 39 H 4.03962 -2.33766 0.609748 0
M  V30 40 H 5.26395 -1.70328 -1.42542 0
M  V30 41 H 6.46389 -1.77399 -0.0100607 0
M  V30 42 H 5.00697 0.626543 -1.28794 0
M  V30 43 H 5.9349 0.78215 0.225924 0
M  V30 44 H 7.37844 1.27889 -1.63152 0
M  V30 45 H 7.72688 -0.417336 -1.38658 0
M  V30 END ATOM
M  V30 BEGIN BOND
M  V30 1 1 1 2
M  V30 2 1 2 3
M  V30 3 1 3 4
M  V30 4 1 4 5
M  V30 5 1 5 6
M  V30 6 1 6 7
M  V30 7 1 7 8
M  V30 8 1 8 9
M  V30 9 1 9 10
M  V30 10 1 10 11
M  V30 11 1 11 12
M  V30 12 1 12 13
M  V30 13 1 13 14
M  V30 14 1 14 15
M  V30 15 1 15 16
M  V30 16 1 1 17
M  V30 17 1 1 18
M  V30 18 1 2 19
M  V30 19 1 2 20
M  V30 20 1 3 21
M  V30 21 1 3 22
M  V30 22 1 4 23
M  V30 23 1 4 24
M  V30 24 1 5 25
M  V30 25 1 6 26
M  V30 26 1 6 27
M  V30 27 1 7 28
M  V30 28 1 7 29
M  V30 29 1 8 30
M  V30 30 1 8 31
M  V30 31 1 9 32
M  V30 32 1 10 33
M  V30 33 1 10 34
M  V30 34 1 11 35
M  V30 35 1 11 36
M  V30 36 1 12 37
M  V30 37 1 13 38
M  V30 38 1 13 39
M  V30 39 1 14 40
M  V30 40 1 14 41
M  V30 41 1 15 42
M  V30 42 1 15 43
M  V30 43 1 16 44
M  V30 44 1 16 45
M  V30 END BOND
M  V30 END CTAB
M  END
