
     RDKit          3D

  0  0  0  0  0  0  0  0  0  0999 V3000
M  V30 BEGIN CTAB
M  V30 COUNTS 30 31 0 0 0
M  V30 BEGIN ATOM
M  V30 1 N 5.72578 0.15127 0.560732 0
M  V30 2 N 4.88159 -0.55068 -0.265434 0
M  V30 3 C 3.46844 -0.405434 -0.231283 0
M  V30 4 C 2.66923 -1.13773 -1.08592 0
M  V30 5 F 3.19248 -2.02311 -1.99089 0
M  V30 6 C 1.29959 -0.992486 -1.04801 0
M  V30 7 F 0.522738 -1.732 -1.90846 0
M  V30 8 C 0.752231 -0.107185 -0.145161 0
M  V30 9 C 1.52337 0.638271 0.721169 0
M  V30 10 F 0.958663 1.51875 1.61734 0
M  V30 11 C 2.89133 0.475063 0.663848 0
M  V30 12 F 3.63432 1.21823 1.52528 0
M  V30 13 C -0.678592 0.0530607 -0.0963856 0
M  V30 14 C -1.40001 -0.758135 0.749656 0
M  V30 15 F -0.799589 -1.70936 1.54327 0
M  V30 16 C -2.76761 -0.600616 0.792237 0
M  V30 17 F -3.48731 -1.38423 1.61266 0
M  V30 18 C -3.43467 0.344722 0.0131696 0
M  V30 19 N -4.8493 0.490875 0.0726362 0
M  V30 20 N -5.66361 -0.270685 0.885532 0
M  V30 21 C -2.65455 1.12548 -0.812893 0
M  V30 22 F -3.26096 2.06093 -1.59117 0
M  V30 23 C -1.28426 1.00234 -0.887505 0
M  V30 24 F -0.56873 1.81814 -1.73699 0
M  V30 25 H 5.72831 -0.13301 1.54278 0
M  V30 26 H 5.83462 1.14742 0.36069 0
M  V30 27 H 5.31298 -1.22186 -0.948693 0
M  V30 28 H -5.27456 1.22052 -0.540852 0
M  V30 29 H -6.63395 -0.271971 0.498776 0
M  V30 30 H -5.63799 0.0334256 1.86319 0
M  V30 END ATOM
M  V30 BEGIN BOND
M  V30 1 1 1 2
M  V30 2 1 2 3
M  V30 3 2 3 4
M  V30 4 1 4 5
M  V30 5 1 4 6
M  V30 6 1 6 7
M  V30 7 2 6 8
M  V30 8 1 8 9
M  V30 9 1 9 10
M  V30 10 2 9 11
M  V30 11 1 11 12
M  V30 12 1 8 13
M  V30 13 2 13 14
M  V30 14 1 14 15
M  V30 15 1 14 16
M  V30 16 1 16 17
M  V30 17 2 16 18
M  V30 18 1 18 19
M  V30 19 1 19 20
M  V30 20 1 18 21
M  V30 21 1 21 22
M  V30 22 2 21 23
M  V30 23 1 23 24
M  V30 24 1 11 3
M  V30 25 1 23 13
M  V30 26 1 1 25
M  V30 27 1 1 26
M  V30 28 1 2 27
M  V30 29 1 19 28
M  V30 30 1 20 29
M  V30 31 1 20 30
M  V30 END BOND
M  V30 END CTAB
M  END
