
     RDKit          3D

  0  0  0  0  0  0  0  0  0  0999 V3000
M  V30 BEGIN CTAB
M  V30 COUNTS 37 38 0 0 0
M  V30 BEGIN ATOM
M  V30 1 N -6.77131 0.161312 1.14975 0
M  V30 2 C -5.43628 0.125258 0.62401 0
M  V30 3 C -4.92544 -0.999254 0.0113677 0
M  V30 4 C -3.63267 -0.94495 -0.464706 0
M  V30 5 C -2.82261 0.177992 -0.359636 0
M  V30 6 N -3.35623 1.26288 0.247063 0
M  V30 7 C -4.61452 1.22903 0.717486 0
M  V30 8 C -1.43661 0.184517 -0.889156 0
M  V30 9 C -0.503232 -0.270551 0.171415 0
M  V30 10 O -0.979154 -0.576528 1.28979 0
M  V30 11 N 0.897735 -0.368838 -0.0399776 0
M  V30 12 C 1.41996 -0.0144329 -1.325 0
M  V30 13 C 2.85013 0.407616 -1.29435 0
M  V30 14 N 3.31717 0.815901 -0.00294453 0
M  V30 15 C 3.05394 -0.0913533 1.0554 0
M  V30 16 C 1.74809 -0.811116 1.01208 0
M  V30 17 S 5.03068 1.1287 -0.0176501 0
M  V30 18 O 5.50254 1.54307 1.34611 0
M  V30 19 O 5.39003 2.15889 -1.04356 0
M  V30 20 N 5.80687 -0.355012 -0.440838 0
M  V30 21 H -6.97307 0.777256 1.96811 0
M  V30 22 H -7.52313 -0.400153 0.74166 0
M  V30 23 H -5.54864 -1.87864 -0.0751937 0
M  V30 24 H -3.22202 -1.81601 -0.944975 0
M  V30 25 H -5.06188 2.10453 1.21352 0
M  V30 26 H -1.21477 1.24357 -1.20912 0
M  V30 27 H -1.32824 -0.520369 -1.74546 0
M  V30 28 H 1.32591 -0.897803 -1.98751 0
M  V30 29 H 0.751741 0.766216 -1.7905 0
M  V30 30 H 2.98315 1.21054 -2.04699 0
M  V30 31 H 3.48333 -0.443096 -1.61875 0
M  V30 32 H 3.86556 -0.879512 1.00367 0
M  V30 33 H 3.2279 0.387753 2.04441 0
M  V30 34 H 1.25702 -0.678358 2.02313 0
M  V30 35 H 1.88431 -1.93345 0.962038 0
M  V30 36 H 5.12892 -1.12158 -0.622681 0
M  V30 37 H 6.4248 -0.684025 0.337984 0
M  V30 END ATOM
M  V30 BEGIN BOND
M  V30 1 1 1 2
M  V30 2 2 2 3
M  V30 3 1 3 4
M  V30 4 2 4 5
M  V30 5 1 5 6
M  V30 6 2 6 7
M  V30 7 1 5 8
M  V30 8 1 8 9
M  V30 9 2 9 10
M  V30 10 1 9 11
M  V30 11 1 11 12
M  V30 12 1 12 13
M  V30 13 1 13 14
M  V30 14 1 14 15
M  V30 15 1 15 16
M  V30 16 1 14 17
M  V30 17 2 17 18
M  V30 18 2 17 19
M  V30 19 1 17 20
M  V30 20 1 7 2
M  V30 21 1 16 11
M  V30 22 1 1 21
M  V30 23 1 1 22
M  V30 24 1 3 23
M  V30 25 1 4 24
M  V30 26 1 7 25
M  V30 27 1 8 26
M  V30 28 1 8 27
M  V30 29 1 12 28
M  V30 30 1 12 29
M  V30 31 1 13 30
M  V30 32 1 13 31
M  V30 33 1 15 32
M  V30 34 1 15 33
M  V30 35 1 16 34
M  V30 36 1 16 35
M  V30 37 1 20 36
M  V30 38 1 20 37
M  V30 END BOND
M  V30 END CTAB
M  END
