
     RDKit          3D

  0  0  0  0  0  0  0  0  0  0999 V3000
M  V30 BEGIN CTAB
M  V30 COUNTS 35 36 0 0 0
M  V30 BEGIN ATOM
M  V30 1 C -3.96325 -2.00758 -0.945972 0
M  V30 2 C -4.3289 -0.915121 -1.91007 0
M  V30 3 O -4.25776 0.365926 -1.33784 0
M  V30 4 C -3.12269 0.937504 -0.816193 0
M  V30 5 C -1.87507 0.356106 -0.77585 0
M  V30 6 C -0.780003 1.00362 -0.229183 0
M  V30 7 C 0.537171 0.377282 -0.191774 0
M  V30 8 N 1.56701 0.930474 0.297685 0
M  V30 9 N 2.83604 0.353709 0.345508 0
M  V30 10 C 3.0735 -0.790882 0.86602 0
M  V30 11 C 4.41771 -1.34888 0.890549 0
M  V30 12 N 4.77245 -2.53728 1.41081 0
M  V30 13 O 6.04131 -2.71582 1.26211 0
M  V30 14 N 6.54297 -1.68078 0.657695 0
M  V30 15 C 5.57212 -0.785535 0.397084 0
M  V30 16 N 5.70229 0.485727 -0.254591 0
M  V30 17 N 1.99238 -1.51289 1.42404 0
M  V30 18 C -0.921989 2.26551 0.293989 0
M  V30 19 C -2.1555 2.882 0.272272 0
M  V30 20 C -3.24718 2.22212 -0.278936 0
M  V30 21 O -4.47573 2.82947 -0.303511 0
M  V30 22 Br -2.36748 4.62453 0.990807 0
M  V30 23 H -4.81273 -2.70331 -0.817064 0
M  V30 24 H -3.68014 -1.59518 0.060922 0
M  V30 25 H -3.09742 -2.59672 -1.27748 0
M  V30 26 H -5.36092 -1.09946 -2.29729 0
M  V30 27 H -3.59462 -0.974959 -2.75586 0
M  V30 28 H -1.73915 -0.619172 -1.1788 0
M  V30 29 H 0.622164 -0.615443 -0.609589 0
M  V30 30 H 5.65101 0.52899 -1.27777 0
M  V30 31 H 5.84405 1.32754 0.312026 0
M  V30 32 H 1.57318 -2.26603 0.862749 0
M  V30 33 H 1.67967 -1.23837 2.37979 0
M  V30 34 H -0.0504829 2.75701 0.718539 0
M  V30 35 H -4.59405 3.75588 0.0771518 0
M  V30 END ATOM
M  V30 BEGIN BOND
M  V30 1 1 1 2
M  V30 2 1 2 3
M  V30 3 1 3 4
M  V30 4 2 4 5
M  V30 5 1 5 6
M  V30 6 1 6 7
M  V30 7 2 7 8
M  V30 8 1 8 9
M  V30 9 2 9 10
M  V30 10 1 10 11
M  V30 11 2 11 12
M  V30 12 1 12 13
M  V30 13 1 13 14
M  V30 14 2 14 15
M  V30 15 1 15 16
M  V30 16 1 10 17
M  V30 17 2 6 18
M  V30 18 1 18 19
M  V30 19 2 19 20
M  V30 20 1 20 21
M  V30 21 1 19 22
M  V30 22 1 20 4
M  V30 23 1 15 11
M  V30 24 1 1 23
M  V30 25 1 1 24
M  V30 26 1 1 25
M  V30 27 1 2 26
M  V30 28 1 2 27
M  V30 29 1 5 28
M  V30 30 1 7 29
M  V30 31 1 16 30
M  V30 32 1 16 31
M  V30 33 1 17 32
M  V30 34 1 17 33
M  V30 35 1 18 34
M  V30 36 1 21 35
M  V30 END BOND
M  V30 END CTAB
M  END
