
     RDKit          3D

  0  0  0  0  0  0  0  0  0  0999 V3000
M  V30 BEGIN CTAB
M  V30 COUNTS 19 18 0 0 0
M  V30 BEGIN ATOM
M  V30 1 N -1.51683 -1.55774 -0.187718 0
M  V30 2 C -1.49583 -0.144557 -0.386348 0
M  V30 3 C -0.391152 0.595942 0.283484 0
M  V30 4 C 0.970973 0.199517 -0.116295 0
M  V30 5 O 1.71345 1.03899 -0.68 0
M  V30 6 N 1.50058 -1.09113 0.100182 0
M  V30 7 N 2.79267 -1.46307 -0.2822 0
M  V30 8 C -0.632253 2.08738 0.00412713 0
M  V30 9 H -2.46986 -1.90575 -0.450205 0
M  V30 10 H -1.45807 -1.72352 0.861758 0
M  V30 11 H -1.56675 0.0725593 -1.47726 0
M  V30 12 H -2.45503 0.27848 0.0374131 0
M  V30 13 H -0.449058 0.439302 1.39453 0
M  V30 14 H 0.926695 -1.82321 0.566825 0
M  V30 15 H 3.46423 -1.16089 0.45052 0
M  V30 16 H 3.07265 -1.05657 -1.20131 0
M  V30 17 H -0.0199912 2.67717 0.697235 0
M  V30 18 H -1.70806 2.31101 0.0287936 0
M  V30 19 H -0.278376 2.22611 -1.05857 0
M  V30 END ATOM
M  V30 BEGIN BOND
M  V30 1 1 1 2
M  V30 2 1 2 3
M  V30 3 1 3 4
M  V30 4 2 4 5
M  V30 5 1 4 6
M  V30 6 1 6 7
M  V30 7 1 3 8
M  V30 8 1 1 9
M  V30 9 1 1 10
M  V30 10 1 2 11
M  V30 11 1 2 12
M  V30 12 1 3 13
M  V30 13 1 6 14
M  V30 14 1 7 15
M  V30 15 1 7 16
M  V30 16 1 8 17
M  V30 17 1 8 18
M  V30 18 1 8 19
M  V30 END BOND
M  V30 END CTAB
M  END
