
     RDKit          3D

  0  0  0  0  0  0  0  0  0  0999 V3000
M  V30 BEGIN CTAB
M  V30 COUNTS 69 68 0 0 0
M  V30 BEGIN ATOM
M  V30 1 C -3.79653 1.13008 0.764243 0 CFG=2
M  V30 2 C -4.93523 0.245551 0.316395 0
M  V30 3 C -5.19911 0.346374 -1.13495 0
M  V30 4 C -6.32482 -0.499039 -1.63091 0
M  V30 5 N -6.19607 -1.91279 -1.50245 0
M  V30 6 C -6.23204 -2.66529 -0.322791 0
M  V30 7 N -7.23772 -2.50229 0.675559 0
M  V30 8 N -5.3365 -3.58266 -0.0850057 0
M  V30 9 N -4.03233 2.51092 0.522199 0
M  V30 10 C -4.12157 3.48232 1.5263 0
M  V30 11 O -3.9883 3.19224 2.74198 0
M  V30 12 C -4.38448 4.89621 1.12633 0
M  V30 13 N -4.50246 4.98099 -0.316228 0
M  V30 14 C -2.52924 0.686589 0.181841 0
M  V30 15 O -1.65361 1.55748 -0.0876498 0
M  V30 16 N -2.30703 -0.678821 -0.0712973 0
M  V30 17 C -1.10981 -1.1866 -0.628223 0
M  V30 18 C 0.116416 -1.03352 0.171115 0
M  V30 19 O 0.0696701 -0.491536 1.29678 0
M  V30 20 N 1.3689 -1.50214 -0.315704 0
M  V30 21 C 2.62067 -1.43348 0.39239 0 CFG=1
M  V30 22 C 3.27822 -2.75704 0.515877 0
M  V30 23 C 3.62698 -3.43968 -0.708533 0
M  V30 24 O 3.45233 -2.99003 -2.00188 0
M  V30 25 O 4.15937 -4.59028 -0.603957 0
M  V30 26 C 3.46594 -0.329605 -0.0309831 0
M  V30 27 O 2.97102 0.707906 -0.520374 0
M  V30 28 N 4.88375 -0.360451 0.0814018 0
M  V30 29 C 5.78396 0.693436 -0.302167 0 CFG=1
M  V30 30 C 6.87956 0.832775 0.715617 0
M  V30 31 C 7.83842 1.93892 0.35481 0
M  V30 32 C 7.63034 -0.500954 0.858317 0
M  V30 33 C 6.45439 0.281189 -1.59929 0
M  V30 34 O 7.34519 1.18919 -2.14393 0
M  V30 35 O 6.20334 -0.823538 -2.13798 0
M  V30 36 H -3.70643 0.97363 1.86921 0
M  V30 37 H -4.79552 -0.751237 0.695239 0
M  V30 38 H -5.82921 0.658125 0.898681 0
M  V30 39 H -5.34517 1.40169 -1.47042 0
M  V30 40 H -4.28466 -0.00491414 -1.71887 0
M  V30 41 H -7.2544 -0.136958 -1.09959 0
M  V30 42 H -6.49623 -0.248977 -2.71867 0
M  V30 43 H -6.05508 -2.49683 -2.39327 0
M  V30 44 H -8.24237 -2.625 0.508854 0
M  V30 45 H -6.89635 -2.2405 1.63666 0
M  V30 46 H -4.57994 -3.77916 -0.755955 0
M  V30 47 H -4.14376 2.77799 -0.50294 0
M  V30 48 H -5.36844 5.18448 1.583 0
M  V30 49 H -3.57226 5.55861 1.44241 0
M  V30 50 H -3.58597 5.1288 -0.769082 0
M  V30 51 H -5.20734 5.70226 -0.569632 0
M  V30 52 H -3.05595 -1.39162 0.156959 0
M  V30 53 H -1.19571 -2.23239 -0.984664 0
M  V30 54 H -0.92045 -0.582767 -1.57129 0
M  V30 55 H 1.34928 -1.93553 -1.28861 0
M  V30 56 H 2.30131 -1.14468 1.45628 0
M  V30 57 H 4.15613 -2.73869 1.18847 0
M  V30 58 H 2.54843 -3.42923 1.06397 0
M  V30 59 H 2.83906 -3.4098 -2.6628 0
M  V30 60 H 5.30499 -1.23356 0.474213 0
M  V30 61 H 5.25237 1.63035 -0.441311 0
M  V30 62 H 6.48911 1.05906 1.73163 0
M  V30 63 H 8.69665 1.47154 -0.174268 0
M  V30 64 H 7.36987 2.7685 -0.184667 0
M  V30 65 H 8.29847 2.28983 1.32751 0
M  V30 66 H 7.39442 -1.16378 0.00454492 0
M  V30 67 H 7.27969 -1.04608 1.76133 0
M  V30 68 H 8.71537 -0.356432 0.928121 0
M  V30 69 H 8.27848 0.950873 -2.46098 0
M  V30 END ATOM
M  V30 BEGIN BOND
M  V30 1 1 1 2
M  V30 2 1 2 3
M  V30 3 1 3 4
M  V30 4 1 4 5
M  V30 5 1 5 6
M  V30 6 1 6 7
M  V30 7 2 6 8 CFG=2
M  V30 8 1 1 9
M  V30 9 1 9 10
M  V30 10 2 10 11
M  V30 11 1 10 12
M  V30 12 1 12 13
M  V30 13 1 1 14
M  V30 14 2 14 15
M  V30 15 1 14 16
M  V30 16 1 16 17
M  V30 17 1 17 18
M  V30 18 2 18 19
M  V30 19 1 18 20
M  V30 20 1 20 21
M  V30 21 1 21 22
M  V30 22 1 22 23
M  V30 23 1 23 24
M  V30 24 2 23 25
M  V30 25 1 21 26
M  V30 26 2 26 27
M  V30 27 1 26 28
M  V30 28 1 28 29
M  V30 29 1 29 30
M  V30 30 1 30 31
M  V30 31 1 30 32
M  V30 32 1 29 33
M  V30 33 1 33 34
M  V30 34 2 33 35
M  V30 35 1 1 36 CFG=1
M  V30 36 1 2 37
M  V30 37 1 2 38
M  V30 38 1 3 39
M  V30 39 1 3 40
M  V30 40 1 4 41
M  V30 41 1 4 42
M  V30 42 1 5 43
M  V30 43 1 7 44
M  V30 44 1 7 45
M  V30 45 1 8 46
M  V30 46 1 9 47
M  V30 47 1 12 48
M  V30 48 1 12 49
M  V30 49 1 13 50
M  V30 50 1 13 51
M  V30 51 1 16 52
M  V30 52 1 17 53
M  V30 53 1 17 54
M  V30 54 1 20 55
M  V30 55 1 21 56 CFG=1
M  V30 56 1 22 57
M  V30 57 1 22 58
M  V30 58 1 24 59
M  V30 59 1 28 60
M  V30 60 1 29 61 CFG=3
M  V30 61 1 30 62
M  V30 62 1 31 63
M  V30 63 1 31 64
M  V30 64 1 31 65
M  V30 65 1 32 66
M  V30 66 1 32 67
M  V30 67 1 32 68
M  V30 68 1 34 69
M  V30 END BOND
M  V30 END CTAB
M  END
