
     RDKit          3D

  0  0  0  0  0  0  0  0  0  0999 V3000
M  V30 BEGIN CTAB
M  V30 COUNTS 19 18 0 0 0
M  V30 BEGIN ATOM
M  V30 1 C 3.66951 -0.0091552 -0.410568 0
M  V30 2 C 2.37863 -0.715486 -0.078576 0
M  V30 3 O 1.27369 0.146986 -0.25396 0
M  V30 4 C -0.0285204 -0.22631 -0.0253169 0
M  V30 5 O -0.303557 -1.38059 0.359856 0
M  V30 6 C -1.09507 0.726188 -0.23219 0
M  V30 7 C -2.37157 0.422533 -0.0275324 0
M  V30 8 N -2.74444 -0.87385 0.410584 0
M  V30 9 N -3.35376 1.41897 -0.255406 0
M  V30 10 H 4.43442 -0.706455 -0.818109 0
M  V30 11 H 4.07808 0.539543 0.460773 0
M  V30 12 H 3.49284 0.748235 -1.20641 0
M  V30 13 H 2.44704 -1.12083 0.93838 0
M  V30 14 H 2.25621 -1.54308 -0.816644 0
M  V30 15 H -0.831095 1.72002 -0.566184 0
M  V30 16 H -2.55971 -1.2653 1.34574 0
M  V30 17 H -3.2542 -1.50318 -0.264488 0
M  V30 18 H -4.27849 1.1974 -0.696238 0
M  V30 19 H -3.20999 2.42437 0.00258203 0
M  V30 END ATOM
M  V30 BEGIN BOND
M  V30 1 1 1 2
M  V30 2 1 2 3
M  V30 3 1 3 4
M  V30 4 2 4 5
M  V30 5 1 4 6
M  V30 6 2 6 7
M  V30 7 1 7 8
M  V30 8 1 7 9
M  V30 9 1 1 10
M  V30 10 1 1 11
M  V30 11 1 1 12
M  V30 12 1 2 13
M  V30 13 1 2 14
M  V30 14 1 6 15
M  V30 15 1 8 16
M  V30 16 1 8 17
M  V30 17 1 9 18
M  V30 18 1 9 19
M  V30 END BOND
M  V30 END CTAB
M  END
