
     RDKit          3D

  0  0  0  0  0  0  0  0  0  0999 V3000
M  V30 BEGIN CTAB
M  V30 COUNTS 29 30 0 0 0
M  V30 BEGIN ATOM
M  V30 1 C 3.47053 -0.0267811 -0.489972 0
M  V30 2 C 2.86792 -1.01623 0.491984 0
M  V30 3 C 1.91665 -0.327929 1.44028 0
M  V30 4 N 0.82139 0.30834 0.746108 0
M  V30 5 C 0.801526 1.5568 0.290331 0
M  V30 6 C -0.404585 1.84331 -0.325689 0
M  V30 7 C -1.14913 0.665773 -0.220684 0
M  V30 8 C -0.360738 -0.258467 0.446037 0
M  V30 9 C -0.854458 -1.52816 0.690832 0
M  V30 10 C -2.12856 -1.80513 0.247781 0
M  V30 11 C -2.9276 -0.892122 -0.419447 0
M  V30 12 C -2.42102 0.366333 -0.654748 0
M  V30 13 N -4.25451 -1.25299 -0.854896 0
M  V30 14 N -0.813703 3.049 -0.931827 0
M  V30 15 H 3.56278 0.968629 0.0214924 0
M  V30 16 H 2.82394 0.0265499 -1.39045 0
M  V30 17 H 4.49738 -0.306351 -0.796066 0
M  V30 18 H 2.39365 -1.87539 -0.0204966 0
M  V30 19 H 3.70591 -1.40707 1.10545 0
M  V30 20 H 1.50136 -1.10388 2.11537 0
M  V30 21 H 2.53043 0.414703 2.01352 0
M  V30 22 H 1.59006 2.29236 0.362411 0
M  V30 23 H -0.236244 -2.24845 1.21206 0
M  V30 24 H -2.54456 -2.78793 0.422858 0
M  V30 25 H -2.99129 1.12379 -1.16888 0
M  V30 26 H -4.80121 -1.99747 -0.375322 0
M  V30 27 H -4.66359 -0.764886 -1.65206 0
M  V30 28 H -1.71331 3.48477 -0.65365 0
M  V30 29 H -0.219023 3.49888 -1.65233 0
M  V30 END ATOM
M  V30 BEGIN BOND
M  V30 1 1 1 2
M  V30 2 1 2 3
M  V30 3 1 3 4
M  V30 4 1 4 5
M  V30 5 2 5 6
M  V30 6 1 6 7
M  V30 7 2 7 8
M  V30 8 1 8 9
M  V30 9 2 9 10
M  V30 10 1 10 11
M  V30 11 2 11 12
M  V30 12 1 11 13
M  V30 13 1 6 14
M  V30 14 1 8 4
M  V30 15 1 12 7
M  V30 16 1 1 15
M  V30 17 1 1 16
M  V30 18 1 1 17
M  V30 19 1 2 18
M  V30 20 1 2 19
M  V30 21 1 3 20
M  V30 22 1 3 21
M  V30 23 1 5 22
M  V30 24 1 9 23
M  V30 25 1 10 24
M  V30 26 1 12 25
M  V30 27 1 13 26
M  V30 28 1 13 27
M  V30 29 1 14 28
M  V30 30 1 14 29
M  V30 END BOND
M  V30 END CTAB
M  END
