
     RDKit          3D

  0  0  0  0  0  0  0  0  0  0999 V3000
M  V30 BEGIN CTAB
M  V30 COUNTS 40 42 0 0 0
M  V30 BEGIN ATOM
M  V30 1 C -1.91432 -1.03408 -1.78039 0
M  V30 2 C -2.16244 -1.19902 -0.344484 0
M  V30 3 C -3.16129 -2.06461 0.0583497 0
M  V30 4 C -3.42673 -2.24828 1.4021 0
M  V30 5 C -2.70269 -1.57348 2.37354 0
M  V30 6 C -1.71782 -0.722144 1.91943 0
M  V30 7 C -1.42732 -0.515389 0.602123 0
M  V30 8 C -0.387842 0.38308 0.120602 0
M  V30 9 C -0.505861 1.71857 -0.188517 0
M  V30 10 N 0.689814 2.18435 -0.598713 0
M  V30 11 C 1.57196 1.18093 -0.560446 0
M  V30 12 C 2.92225 1.18688 -0.892066 0
M  V30 13 C 3.61405 0.016156 -0.764914 0
M  V30 14 C 2.97771 -1.13114 -0.318987 0
M  V30 15 C 1.64403 -1.137 0.00854474 0
M  V30 16 C 0.927207 0.0368485 -0.113282 0
M  V30 17 S 3.96945 -2.5701 -0.197278 0
M  V30 18 N 4.6576 -2.63453 1.3774 0
M  V30 19 O 3.15347 -3.7855 -0.451243 0
M  V30 20 O 5.08262 -2.5061 -1.18826 0
M  V30 21 C -1.69624 2.53523 -0.104159 0
M  V30 22 O -2.77746 2.03227 0.287433 0
M  V30 23 N -1.69438 3.9064 -0.451577 0
M  V30 24 N -2.79157 4.73573 -0.393197 0
M  V30 25 H -2.90362 -1.11363 -2.30363 0
M  V30 26 H -1.49522 -0.0452329 -2.0558 0
M  V30 27 H -1.31062 -1.87791 -2.14143 0
M  V30 28 H -3.75577 -2.61568 -0.659978 0
M  V30 29 H -4.222 -2.93847 1.69577 0
M  V30 30 H -2.91985 -1.7254 3.42878 0
M  V30 31 H -1.14929 -0.192725 2.67006 0
M  V30 32 H 0.895411 3.18113 -0.901235 0
M  V30 33 H 3.38875 2.11208 -1.24027 0
M  V30 34 H 4.66362 0.00996002 -1.01994 0
M  V30 35 H 1.16062 -2.03139 0.353083 0
M  V30 36 H 3.94851 -2.50525 2.13708 0
M  V30 37 H 5.44178 -1.95406 1.48993 0
M  V30 38 H -0.786703 4.3324 -0.78129 0
M  V30 39 H -3.05161 5.03926 0.570726 0
M  V30 40 H -2.74819 5.52985 -1.04386 0
M  V30 END ATOM
M  V30 BEGIN BOND
M  V30 1 1 1 2
M  V30 2 2 2 3
M  V30 3 1 3 4
M  V30 4 2 4 5
M  V30 5 1 5 6
M  V30 6 2 6 7
M  V30 7 1 7 8
M  V30 8 2 8 9
M  V30 9 1 9 10
M  V30 10 1 10 11
M  V30 11 2 11 12
M  V30 12 1 12 13
M  V30 13 2 13 14
M  V30 14 1 14 15
M  V30 15 2 15 16
M  V30 16 1 14 17
M  V30 17 1 17 18
M  V30 18 2 17 19
M  V30 19 2 17 20
M  V30 20 1 9 21
M  V30 21 2 21 22
M  V30 22 1 21 23
M  V30 23 1 23 24
M  V30 24 1 7 2
M  V30 25 1 16 8
M  V30 26 1 16 11
M  V30 27 1 1 25
M  V30 28 1 1 26
M  V30 29 1 1 27
M  V30 30 1 3 28
M  V30 31 1 4 29
M  V30 32 1 5 30
M  V30 33 1 6 31
M  V30 34 1 10 32
M  V30 35 1 12 33
M  V30 36 1 13 34
M  V30 37 1 15 35
M  V30 38 1 18 36
M  V30 39 1 18 37
M  V30 40 1 23 38
M  V30 41 1 24 39
M  V30 42 1 24 40
M  V30 END BOND
M  V30 END CTAB
M  END
