
     RDKit          3D

  0  0  0  0  0  0  0  0  0  0999 V3000
M  V30 BEGIN CTAB
M  V30 COUNTS 19 19 0 0 0
M  V30 BEGIN ATOM
M  V30 1 N 3.4705 0.103725 0.44193 0
M  V30 2 C 2.08497 0.114157 0.168938 0
M  V30 3 C 1.37234 1.27486 -0.0595506 0
M  V30 4 C 0.0221978 1.1886 -0.318243 0
M  V30 5 Br -0.907693 2.84594 -0.62723 0
M  V30 6 C -0.646964 -0.0126002 -0.358159 0
M  V30 7 C 0.0717208 -1.16028 -0.129472 0
M  V30 8 C 1.42115 -1.11345 0.13209 0
M  V30 9 Br -0.879645 -2.82911 -0.189077 0
M  V30 10 S -2.37761 -0.0324946 -0.69665 0
M  V30 11 O -2.73632 -1.29928 -1.41357 0
M  V30 12 O -2.79273 1.12557 -1.53353 0
M  V30 13 N -3.24827 0.0839641 0.805042 0
M  V30 14 H 4.14453 -0.26948 -0.245575 0
M  V30 15 H 3.80358 0.477376 1.34577 0
M  V30 16 H 1.89042 2.22592 -0.0302189 0
M  V30 17 H 1.9875 -2.01495 0.312102 0
M  V30 18 H -4.08416 -0.544508 0.79141 0
M  V30 19 H -2.59552 -0.163954 1.604 0
M  V30 END ATOM
M  V30 BEGIN BOND
M  V30 1 1 1 2
M  V30 2 2 2 3
M  V30 3 1 3 4
M  V30 4 1 4 5
M  V30 5 2 4 6
M  V30 6 1 6 7
M  V30 7 2 7 8
M  V30 8 1 7 9
M  V30 9 1 6 10
M  V30 10 2 10 11
M  V30 11 2 10 12
M  V30 12 1 10 13
M  V30 13 1 8 2
M  V30 14 1 1 14
M  V30 15 1 1 15
M  V30 16 1 3 16
M  V30 17 1 8 17
M  V30 18 1 13 18
M  V30 19 1 13 19
M  V30 END BOND
M  V30 END CTAB
M  END
