
     RDKit          3D

  0  0  0  0  0  0  0  0  0  0999 V3000
M  V30 BEGIN CTAB
M  V30 COUNTS 16 16 0 0 0
M  V30 BEGIN ATOM
M  V30 1 N 3.05985 -0.205882 -0.331504 0
M  V30 2 N 2.11145 0.137554 0.640074 0
M  V30 3 C 0.784406 0.540825 0.32396 0
M  V30 4 N 0.452001 1.81493 0.115164 0
M  V30 5 N -0.793901 2.11848 -0.173404 0
M  V30 6 C -1.77521 1.22806 -0.275903 0
M  V30 7 C -1.46758 -0.0951383 -0.0667489 0
M  V30 8 C -0.172422 -0.43285 0.235669 0
M  V30 9 N -2.49539 -1.09954 -0.166171 0
M  V30 10 H 2.72694 -0.114472 -1.29318 0
M  V30 11 H 3.56791 -1.08561 -0.113895 0
M  V30 12 H 2.43919 0.0804162 1.63795 0
M  V30 13 H -2.80816 1.49477 -0.516797 0
M  V30 14 H 0.0564124 -1.4975 0.400097 0
M  V30 15 H -2.61879 -1.57001 -1.08761 0
M  V30 16 H -3.06669 -1.31403 0.672304 0
M  V30 END ATOM
M  V30 BEGIN BOND
M  V30 1 1 1 2
M  V30 2 1 2 3
M  V30 3 2 3 4
M  V30 4 1 4 5
M  V30 5 2 5 6
M  V30 6 1 6 7
M  V30 7 2 7 8
M  V30 8 1 7 9
M  V30 9 1 8 3
M  V30 10 1 1 10
M  V30 11 1 1 11
M  V30 12 1 2 12
M  V30 13 1 6 13
M  V30 14 1 8 14
M  V30 15 1 9 15
M  V30 16 1 9 16
M  V30 END BOND
M  V30 END CTAB
M  END
