
     RDKit          3D

  0  0  0  0  0  0  0  0  0  0999 V3000
M  V30 BEGIN CTAB
M  V30 COUNTS 24 25 0 0 0
M  V30 BEGIN ATOM
M  V30 1 N 4.63787 -0.295325 -0.317026 0
M  V30 2 C 3.2266 -0.316936 -0.245679 0
M  V30 3 N 2.53806 -1.4795 -0.319875 0
M  V30 4 C 1.19609 -1.4178 -0.244249 0
M  V30 5 S 0.256917 -2.76685 -0.323047 0
M  V30 6 N 0.526215 -0.247949 -0.0987181 0
M  V30 7 C 1.21255 0.909599 -0.0248821 0
M  V30 8 N 0.566939 2.17763 0.128678 0
M  V30 9 N 2.55184 0.832379 -0.101838 0
M  V30 10 C -0.894413 -0.212005 -0.0214347 0
M  V30 11 C -1.64398 0.496585 -0.938351 0
M  V30 12 C -3.02055 0.500778 -0.820954 0
M  V30 13 C -3.6914 -0.177731 0.181338 0
M  V30 14 C -2.93777 -0.889547 1.10237 0
M  V30 15 C -1.56623 -0.891656 0.982528 0
M  V30 16 H 5.14777 -0.166043 -1.20675 0
M  V30 17 H 5.18423 -0.413261 0.553661 0
M  V30 18 H 0.107327 2.49182 0.991755 0
M  V30 19 H 0.574884 2.81798 -0.713312 0
M  V30 20 H -1.15511 1.05201 -1.75342 0
M  V30 21 H -3.62269 1.05231 -1.53296 0
M  V30 22 H -4.77522 -0.173878 0.273 0
M  V30 23 H -3.4405 -1.42223 1.8871 0
M  V30 24 H -0.979429 -1.46038 1.71977 0
M  V30 END ATOM
M  V30 BEGIN BOND
M  V30 1 1 1 2
M  V30 2 2 2 3
M  V30 3 1 3 4
M  V30 4 2 4 5
M  V30 5 1 4 6
M  V30 6 1 6 7
M  V30 7 1 7 8
M  V30 8 2 7 9
M  V30 9 1 6 10
M  V30 10 2 10 11
M  V30 11 1 11 12
M  V30 12 2 12 13
M  V30 13 1 13 14
M  V30 14 2 14 15
M  V30 15 1 9 2
M  V30 16 1 15 10
M  V30 17 1 1 16
M  V30 18 1 1 17
M  V30 19 1 8 18
M  V30 20 1 8 19
M  V30 21 1 11 20
M  V30 22 1 12 21
M  V30 23 1 13 22
M  V30 24 1 14 23
M  V30 25 1 15 24
M  V30 END BOND
M  V30 END CTAB
M  END
