
     RDKit          3D

  0  0  0  0  0  0  0  0  0  0999 V3000
M  V30 BEGIN CTAB
M  V30 COUNTS 38 38 0 0 0
M  V30 BEGIN ATOM
M  V30 1 C -2.39011 2.32953 0.284162 0
M  V30 2 C -2.61273 0.867701 0.122229 0
M  V30 3 C -1.304 0.0474187 0.0836087 0
M  V30 4 N -0.652325 0.319461 1.30946 0
M  V30 5 S 0.634504 -0.611139 1.82399 0
M  V30 6 O 0.249507 -2.07213 2.07263 0
M  V30 7 O 1.13326 -0.0410688 3.1763 0
M  V30 8 C 2.06222 -0.636691 0.843488 0
M  V30 9 C 2.44067 -1.81618 0.24472 0
M  V30 10 C 3.55839 -1.92858 -0.562448 0
M  V30 11 Cl 3.97346 -3.46479 -1.28836 0
M  V30 12 C 4.30199 -0.782279 -0.751254 0
M  V30 13 N 3.92795 0.36323 -0.164606 0
M  V30 14 C 2.84275 0.478561 0.621464 0
M  V30 15 N 2.48855 1.69069 1.24666 0
M  V30 16 C -0.561047 0.475412 -1.14374 0
M  V30 17 N -0.212493 1.85948 -1.22026 0
M  V30 18 C -1.7608 -1.39661 -0.02387 0
M  V30 19 C -2.58403 -1.68881 -1.23467 0
M  V30 20 H -2.49913 2.9155 -0.646479 0
M  V30 21 H -3.2553 2.70065 0.922963 0
M  V30 22 H -1.4843 2.61268 0.856497 0
M  V30 23 H -3.16211 0.466046 1.00801 0
M  V30 24 H -3.19433 0.724468 -0.804816 0
M  V30 25 H -1.23398 0.625893 2.09395 0
M  V30 26 H 1.86103 -2.71711 0.389596 0
M  V30 27 H 5.18327 -0.849059 -1.38197 0
M  V30 28 H 2.18069 2.4943 0.682227 0
M  V30 29 H 2.53906 1.76945 2.27159 0
M  V30 30 H 0.373574 -0.135873 -1.30173 0
M  V30 31 H -1.20949 0.285495 -2.05527 0
M  V30 32 H -0.669465 2.35589 -2.02724 0
M  V30 33 H 0.829137 2.01489 -1.24088 0
M  V30 34 H -2.32254 -1.69618 0.892037 0
M  V30 35 H -0.900443 -2.09776 -0.0621804 0
M  V30 36 H -3.6083 -2.04936 -0.89412 0
M  V30 37 H -2.78959 -0.856438 -1.89763 0
M  V30 38 H -2.17348 -2.55668 -1.82016 0
M  V30 END ATOM
M  V30 BEGIN BOND
M  V30 1 1 1 2
M  V30 2 1 2 3
M  V30 3 1 3 4
M  V30 4 1 4 5
M  V30 5 2 5 6
M  V30 6 2 5 7
M  V30 7 1 5 8
M  V30 8 2 8 9
M  V30 9 1 9 10
M  V30 10 1 10 11
M  V30 11 2 10 12
M  V30 12 1 12 13
M  V30 13 2 13 14
M  V30 14 1 14 15
M  V30 15 1 3 16
M  V30 16 1 16 17
M  V30 17 1 3 18
M  V30 18 1 18 19
M  V30 19 1 14 8
M  V30 20 1 1 20
M  V30 21 1 1 21
M  V30 22 1 1 22
M  V30 23 1 2 23
M  V30 24 1 2 24
M  V30 25 1 4 25
M  V30 26 1 9 26
M  V30 27 1 12 27
M  V30 28 1 15 28
M  V30 29 1 15 29
M  V30 30 1 16 30
M  V30 31 1 16 31
M  V30 32 1 17 32
M  V30 33 1 17 33
M  V30 34 1 18 34
M  V30 35 1 18 35
M  V30 36 1 19 36
M  V30 37 1 19 37
M  V30 38 1 19 38
M  V30 END BOND
M  V30 END CTAB
M  END
