
     RDKit          3D

  0  0  0  0  0  0  0  0  0  0999 V3000
M  V30 BEGIN CTAB
M  V30 COUNTS 22 22 0 0 0
M  V30 BEGIN ATOM
M  V30 1 F 3.76273 -0.44173 1.11135 0
M  V30 2 C 3.13555 -0.796913 -0.0598602 0
M  V30 3 C 1.67922 -0.430756 -0.0311298 0
M  V30 4 C 0.690715 -1.38173 -0.228654 0
M  V30 5 C -0.644497 -1.05376 -0.203688 0
M  V30 6 N -1.68167 -2.01117 -0.403628 0
M  V30 7 C -1.03134 0.256206 0.0233855 0
M  V30 8 C -0.0447327 1.19585 0.218807 0
M  V30 9 C 1.31123 0.87859 0.196314 0
M  V30 10 N -0.450289 2.53012 0.449599 0
M  V30 11 C -2.46916 0.610897 0.0504205 0
M  V30 12 F -3.09998 -0.11777 1.06937 0
M  V30 13 F -2.64549 1.93797 0.385018 0
M  V30 14 F -3.09132 0.304857 -1.14697 0
M  V30 15 F 3.69635 -0.155353 -1.15306 0
M  V30 16 H 3.18372 -1.88514 -0.255201 0
M  V30 17 H 0.971708 -2.40692 -0.406915 0
M  V30 18 H -1.96296 -2.69881 0.315263 0
M  V30 19 H -2.17566 -2.00898 -1.32654 0
M  V30 20 H 2.06176 1.63693 0.352851 0
M  V30 21 H -0.589123 2.89025 1.4049 0
M  V30 22 H -0.606781 3.14736 -0.361624 0
M  V30 END ATOM
M  V30 BEGIN BOND
M  V30 1 1 1 2
M  V30 2 1 2 3
M  V30 3 2 3 4
M  V30 4 1 4 5
M  V30 5 1 5 6
M  V30 6 2 5 7
M  V30 7 1 7 8
M  V30 8 2 8 9
M  V30 9 1 8 10
M  V30 10 1 7 11
M  V30 11 1 11 12
M  V30 12 1 11 13
M  V30 13 1 11 14
M  V30 14 1 2 15
M  V30 15 1 9 3
M  V30 16 1 2 16
M  V30 17 1 4 17
M  V30 18 1 6 18
M  V30 19 1 6 19
M  V30 20 1 9 20
M  V30 21 1 10 21
M  V30 22 1 10 22
M  V30 END BOND
M  V30 END CTAB
M  END
