
     RDKit          3D

  0  0  0  0  0  0  0  0  0  0999 V3000
M  V30 BEGIN CTAB
M  V30 COUNTS 42 44 0 0 0
M  V30 BEGIN ATOM
M  V30 1 N -5.01717 3.45788 -0.0754479 0
M  V30 2 C -4.94601 2.05278 -0.246989 0
M  V30 3 N -4.23769 1.29087 0.591239 0
M  V30 4 C -4.14776 -0.0698562 0.452806 0
M  V30 5 S -3.15512 -0.912589 1.6436 0
M  V30 6 C -1.42785 -0.884784 1.19703 0
M  V30 7 C -0.997155 -1.76945 0.113773 0
M  V30 8 C -1.78697 -2.70285 -0.510228 0
M  V30 9 C -1.30383 -3.53964 -1.49399 0
M  V30 10 C 0.0241176 -3.41461 -1.8436 0
M  V30 11 C 0.858077 -2.4826 -1.23515 0
M  V30 12 C 0.3601 -1.65571 -0.256888 0
M  V30 13 C 1.24347 -0.657808 0.385829 0
M  V30 14 S 2.9055 -0.783431 -0.304078 0
M  V30 15 C 4.01076 0.415671 0.420884 0
M  V30 16 N 5.28049 0.413294 0.00271644 0
M  V30 17 C 6.23298 1.24622 0.446727 0
M  V30 18 N 7.57439 1.20565 -0.0300137 0
M  V30 19 C 5.88363 2.17522 1.4046 0
M  V30 20 C 4.56068 2.1855 1.8477 0
M  V30 21 O 4.256 3.02579 2.71042 0
M  V30 22 N 3.6469 1.3089 1.35139 0
M  V30 23 N -4.78155 -0.647733 -0.539945 0
M  V30 24 C -5.53249 0.0444379 -1.45099 0
M  V30 25 O -6.13663 -0.515308 -2.39973 0
M  V30 26 C -5.59722 1.41624 -1.27609 0
M  V30 27 H -5.94691 3.94166 0.103995 0
M  V30 28 H -4.18808 4.0818 -0.113388 0
M  V30 29 H -0.798196 -1.12946 2.11429 0
M  V30 30 H -1.07524 0.146277 0.917319 0
M  V30 31 H -2.80499 -2.83267 -0.237084 0
M  V30 32 H -1.93153 -4.28255 -1.99343 0
M  V30 33 H 0.434306 -4.05512 -2.61016 0
M  V30 34 H 1.90005 -2.42022 -1.54375 0
M  V30 35 H 0.846397 0.376921 0.335238 0
M  V30 36 H 1.30896 -0.898947 1.48097 0
M  V30 37 H 8.25445 0.618574 0.496761 0
M  V30 38 H 7.9039 1.73008 -0.872649 0
M  V30 39 H 6.59828 2.88831 1.81798 0
M  V30 40 H 2.6622 1.31349 1.6786 0
M  V30 41 H -4.75344 -1.6802 -0.681824 0
M  V30 42 H -6.17981 1.99995 -1.97294 0
M  V30 END ATOM
M  V30 BEGIN BOND
M  V30 1 1 1 2
M  V30 2 1 2 3
M  V30 3 2 3 4
M  V30 4 1 4 5
M  V30 5 1 5 6
M  V30 6 1 6 7
M  V30 7 2 7 8
M  V30 8 1 8 9
M  V30 9 2 9 10
M  V30 10 1 10 11
M  V30 11 2 11 12
M  V30 12 1 12 13
M  V30 13 1 13 14
M  V30 14 1 14 15
M  V30 15 2 15 16
M  V30 16 1 16 17
M  V30 17 1 17 18
M  V30 18 2 17 19
M  V30 19 1 19 20
M  V30 20 2 20 21
M  V30 21 1 20 22
M  V30 22 1 4 23
M  V30 23 1 23 24
M  V30 24 2 24 25
M  V30 25 1 24 26
M  V30 26 2 26 2
M  V30 27 1 12 7
M  V30 28 1 22 15
M  V30 29 1 1 27
M  V30 30 1 1 28
M  V30 31 1 6 29
M  V30 32 1 6 30
M  V30 33 1 8 31
M  V30 34 1 9 32
M  V30 35 1 10 33
M  V30 36 1 11 34
M  V30 37 1 13 35
M  V30 38 1 13 36
M  V30 39 1 18 37
M  V30 40 1 18 38
M  V30 41 1 19 39
M  V30 42 1 22 40
M  V30 43 1 23 41
M  V30 44 1 26 42
M  V30 END BOND
M  V30 END CTAB
M  END
