
     RDKit          3D

  0  0  0  0  0  0  0  0  0  0999 V3000
M  V30 BEGIN CTAB
M  V30 COUNTS 48 50 0 0 0
M  V30 BEGIN ATOM
M  V30 1 O 0.674705 -0.820711 0.88331 0
M  V30 2 C 0.133018 0.289376 0.783402 0
M  V30 3 N -1.21358 0.438626 0.325343 0
M  V30 4 C -1.75354 1.77861 0.287236 0
M  V30 5 C -2.44712 2.28492 1.37146 0
M  V30 6 C -2.93036 3.55991 1.28887 0
M  V30 7 C -2.71706 4.30191 0.138653 0
M  V30 8 C -2.02463 3.79714 -0.945445 0
M  V30 9 C -1.53176 2.49974 -0.863662 0
M  V30 10 C -2.06977 -0.607217 -0.0981295 0
M  V30 11 C -1.56327 -1.4435 -1.25115 0
M  V30 12 C -2.68725 -2.31854 -1.69641 0
M  V30 13 C -3.76433 -2.58527 -0.706392 0
M  V30 14 C -3.36955 -2.56706 0.733056 0
M  V30 15 C -2.24155 -1.61007 1.036 0
M  V30 16 C 0.916261 1.49379 1.15522 0
M  V30 17 S 2.10575 1.97772 -0.0860359 0
M  V30 18 C 3.44807 0.806751 -0.133593 0
M  V30 19 N 3.52713 -0.252717 0.680383 0
M  V30 20 C 4.51996 -1.15447 0.683571 0
M  V30 21 N 4.4604 -2.23609 1.62105 0
M  V30 22 C 5.53749 -0.99045 -0.210191 0
M  V30 23 C 5.47694 0.103404 -1.06683 0
M  V30 24 N 4.45574 0.971364 -1.02068 0
M  V30 25 N 6.54183 0.256804 -1.98781 0
M  V30 26 H -2.59322 1.68506 2.24218 0
M  V30 27 H -3.47999 3.97722 2.13691 0
M  V30 28 H -3.08939 5.32073 0.044362 0
M  V30 29 H -1.84112 4.34279 -1.84492 0
M  V30 30 H -0.980725 2.08365 -1.71563 0
M  V30 31 H -3.07287 -0.221317 -0.396002 0
M  V30 32 H -1.21569 -0.822966 -2.10026 0
M  V30 33 H -0.764609 -2.10201 -0.850741 0
M  V30 34 H -2.24587 -3.25287 -2.113 0
M  V30 35 H -3.16205 -1.82339 -2.595 0
M  V30 36 H -4.60562 -1.86425 -0.851962 0
M  V30 37 H -4.18795 -3.58902 -0.924129 0
M  V30 38 H -3.0746 -3.56902 1.10339 0
M  V30 39 H -4.23721 -2.24154 1.34197 0
M  V30 40 H -1.29256 -2.1953 1.08869 0
M  V30 41 H -2.34029 -1.06106 1.97537 0
M  V30 42 H 1.38706 1.36463 2.16509 0
M  V30 43 H 0.204886 2.35361 1.30149 0
M  V30 44 H 3.65523 -2.36157 2.26763 0
M  V30 45 H 5.22381 -2.93733 1.69074 0
M  V30 46 H 6.3535 -1.69439 -0.238165 0
M  V30 47 H 7.31385 0.922719 -1.79052 0
M  V30 48 H 6.56192 -0.288364 -2.85872 0
M  V30 END ATOM
M  V30 BEGIN BOND
M  V30 1 2 1 2
M  V30 2 1 2 3
M  V30 3 1 3 4
M  V30 4 2 4 5
M  V30 5 1 5 6
M  V30 6 2 6 7
M  V30 7 1 7 8
M  V30 8 2 8 9
M  V30 9 1 3 10
M  V30 10 1 10 11
M  V30 11 1 11 12
M  V30 12 1 12 13
M  V30 13 1 13 14
M  V30 14 1 14 15
M  V30 15 1 2 16
M  V30 16 1 16 17
M  V30 17 1 17 18
M  V30 18 2 18 19
M  V30 19 1 19 20
M  V30 20 1 20 21
M  V30 21 2 20 22
M  V30 22 1 22 23
M  V30 23 2 23 24
M  V30 24 1 23 25
M  V30 25 1 9 4
M  V30 26 1 15 10
M  V30 27 1 24 18
M  V30 28 1 5 26
M  V30 29 1 6 27
M  V30 30 1 7 28
M  V30 31 1 8 29
M  V30 32 1 9 30
M  V30 33 1 10 31
M  V30 34 1 11 32
M  V30 35 1 11 33
M  V30 36 1 12 34
M  V30 37 1 12 35
M  V30 38 1 13 36
M  V30 39 1 13 37
M  V30 40 1 14 38
M  V30 41 1 14 39
M  V30 42 1 15 40
M  V30 43 1 15 41
M  V30 44 1 16 42
M  V30 45 1 16 43
M  V30 46 1 21 44
M  V30 47 1 21 45
M  V30 48 1 22 46
M  V30 49 1 25 47
M  V30 50 1 25 48
M  V30 END BOND
M  V30 END CTAB
M  END
