
     RDKit          3D

  0  0  0  0  0  0  0  0  0  0999 V3000
M  V30 BEGIN CTAB
M  V30 COUNTS 50 51 0 0 0
M  V30 BEGIN ATOM
M  V30 1 C 2.15525 -2.62644 -0.174784 0
M  V30 2 C 1.63783 -1.16486 -0.336199 0
M  V30 3 C 2.85133 -0.324816 -0.571175 0
M  V30 4 C 3.87456 -0.31579 0.510302 0
M  V30 5 C 5.00689 0.521952 0.0341942 0
M  V30 6 C 6.11298 -0.0700961 -0.568768 0
M  V30 7 C 7.18038 0.681849 -1.0517 0
M  V30 8 C 7.13621 2.05659 -0.9251 0
M  V30 9 C 6.04414 2.67438 -0.324133 0
M  V30 10 C 5.00913 1.89379 0.138289 0
M  V30 11 N 0.832072 -0.939745 0.758758 0
M  V30 12 C -0.432359 -0.327162 0.72722 0
M  V30 13 C -1.50062 -1.09532 -0.0150461 0
M  V30 14 O -1.55764 -2.42681 0.535137 0
M  V30 15 C -2.86436 -0.61531 0.189713 0
M  V30 16 C -3.64201 -0.0843264 -0.79748 0
M  V30 17 C -4.97277 0.321823 -0.55075 0
M  V30 18 C -5.46797 0.166998 0.721949 0
M  V30 19 N -6.79008 0.537833 1.032 0
M  V30 20 C -4.6862 -0.377104 1.75682 0
M  V30 21 C -3.39466 -0.756128 1.45468 0
M  V30 22 S -6.01342 0.961766 -1.78886 0
M  V30 23 N -6.62654 2.52371 -1.43463 0
M  V30 24 O -7.19928 0.0529524 -2.02827 0
M  V30 25 O -5.28927 1.02187 -3.12579 0
M  V30 26 H 1.37368 -3.34403 -0.370522 0
M  V30 27 H 3.09223 -2.76873 -0.760335 0
M  V30 28 H 2.44983 -2.71816 0.888165 0
M  V30 29 H 1.0545 -1.17296 -1.2915 0
M  V30 30 H 3.35775 -0.758625 -1.49087 0
M  V30 31 H 2.57727 0.733021 -0.883056 0
M  V30 32 H 3.5469 0.126637 1.47276 0
M  V30 33 H 4.21399 -1.37979 0.638371 0
M  V30 34 H 6.18955 -1.13112 -0.666687 0
M  V30 35 H 8.02448 0.235829 -1.52012 0
M  V30 36 H 7.93602 2.70762 -1.28766 0
M  V30 37 H 6.06323 3.77506 -0.249091 0
M  V30 38 H 4.18987 2.38901 0.593966 0
M  V30 39 H 1.16558 -1.15883 1.69287 0
M  V30 40 H -0.379906 0.687314 0.281392 0
M  V30 41 H -0.740838 -0.138403 1.78904 0
M  V30 42 H -1.24574 -1.16022 -1.06693 0
M  V30 43 H -1.60877 -3.04717 -0.269022 0
M  V30 44 H -3.30204 0.0552357 -1.82907 0
M  V30 45 H -7.39808 1.0753 0.434545 0
M  V30 46 H -7.2365 0.246321 1.96339 0
M  V30 47 H -5.07435 -0.49227 2.75528 0
M  V30 48 H -2.74027 -1.18227 2.21294 0
M  V30 49 H -6.64095 3.19779 -2.19857 0
M  V30 50 H -6.27102 2.93183 -0.562321 0
M  V30 END ATOM
M  V30 BEGIN BOND
M  V30 1 1 1 2
M  V30 2 1 2 3
M  V30 3 1 3 4
M  V30 4 1 4 5
M  V30 5 2 5 6
M  V30 6 1 6 7
M  V30 7 2 7 8
M  V30 8 1 8 9
M  V30 9 2 9 10
M  V30 10 1 2 11
M  V30 11 1 11 12
M  V30 12 1 12 13
M  V30 13 1 13 14
M  V30 14 1 13 15
M  V30 15 2 15 16
M  V30 16 1 16 17
M  V30 17 2 17 18
M  V30 18 1 18 19
M  V30 19 1 18 20
M  V30 20 2 20 21
M  V30 21 1 17 22
M  V30 22 1 22 23
M  V30 23 2 22 24
M  V30 24 2 22 25
M  V30 25 1 10 5
M  V30 26 1 21 15
M  V30 27 1 1 26
M  V30 28 1 1 27
M  V30 29 1 1 28
M  V30 30 1 2 29
M  V30 31 1 3 30
M  V30 32 1 3 31
M  V30 33 1 4 32
M  V30 34 1 4 33
M  V30 35 1 6 34
M  V30 36 1 7 35
M  V30 37 1 8 36
M  V30 38 1 9 37
M  V30 39 1 10 38
M  V30 40 1 11 39
M  V30 41 1 12 40
M  V30 42 1 12 41
M  V30 43 1 13 42
M  V30 44 1 14 43
M  V30 45 1 16 44
M  V30 46 1 19 45
M  V30 47 1 19 46
M  V30 48 1 20 47
M  V30 49 1 21 48
M  V30 50 1 23 49
M  V30 51 1 23 50
M  V30 END BOND
M  V30 END CTAB
M  END
