
     RDKit          3D

  0  0  0  0  0  0  0  0  0  0999 V3000
M  V30 BEGIN CTAB
M  V30 COUNTS 25 26 0 0 0
M  V30 BEGIN ATOM
M  V30 1 N -1.71373 -0.0297455 2.66771 0
M  V30 2 C -2.06084 0.385969 1.34787 0
M  V30 3 C -1.78021 -0.675676 0.293347 0
M  V30 4 C -2.22697 -0.186268 -1.04038 0
M  V30 5 C -0.950434 -0.0704409 -1.83257 0
M  V30 6 C 0.0439845 -0.774697 -1.0003 0
M  V30 7 O -0.468791 -1.02413 0.240678 0
M  V30 8 C 1.32087 -0.0314058 -0.850681 0
M  V30 9 N 1.79005 1.04584 -1.50068 0
M  V30 10 O 2.97755 1.34277 -1.01583 0
M  V30 11 C 3.3145 0.504054 -0.0690839 0
M  V30 12 N 2.2712 -0.366424 0.0393772 0
M  V30 13 N 4.5066 0.476811 0.702865 0
M  V30 14 H -1.07953 0.66177 3.13841 0
M  V30 15 H -1.37269 -1.00111 2.72982 0
M  V30 16 H -1.61414 1.35981 1.08429 0
M  V30 17 H -3.18142 0.524323 1.33011 0
M  V30 18 H -2.39213 -1.56722 0.606234 0
M  V30 19 H -2.94862 -0.902595 -1.48239 0
M  V30 20 H -2.73266 0.807014 -0.983083 0
M  V30 21 H -1.14507 -0.599831 -2.81114 0
M  V30 22 H -0.720971 0.967242 -2.09522 0
M  V30 23 H 0.254489 -1.7736 -1.48504 0
M  V30 24 H 4.96136 1.3525 1.01648 0
M  V30 25 H 4.94762 -0.424955 0.969194 0
M  V30 END ATOM
M  V30 BEGIN BOND
M  V30 1 1 1 2
M  V30 2 1 2 3
M  V30 3 1 3 4
M  V30 4 1 4 5
M  V30 5 1 5 6
M  V30 6 1 6 7
M  V30 7 1 6 8
M  V30 8 2 8 9
M  V30 9 1 9 10
M  V30 10 1 10 11
M  V30 11 2 11 12
M  V30 12 1 11 13
M  V30 13 1 7 3
M  V30 14 1 12 8
M  V30 15 1 1 14
M  V30 16 1 1 15
M  V30 17 1 2 16
M  V30 18 1 2 17
M  V30 19 1 3 18
M  V30 20 1 4 19
M  V30 21 1 4 20
M  V30 22 1 5 21
M  V30 23 1 5 22
M  V30 24 1 6 23
M  V30 25 1 13 24
M  V30 26 1 13 25
M  V30 END BOND
M  V30 END CTAB
M  END
