
     RDKit          3D

  0  0  0  0  0  0  0  0  0  0999 V3000
M  V30 BEGIN CTAB
M  V30 COUNTS 29 29 0 0 0
M  V30 BEGIN ATOM
M  V30 1 N 4.7911 0.337782 0.188973 0
M  V30 2 N 3.60864 -0.404173 0.115854 0
M  V30 3 C 2.32511 0.127256 0.3473 0
M  V30 4 O 2.20515 1.34281 0.639983 0
M  V30 5 C 1.12916 -0.697435 0.256113 0
M  V30 6 C -0.153133 0.058741 0.539521 0
M  V30 7 C -0.329776 1.16906 -0.421599 0
M  V30 8 C -1.69579 1.28123 -1.02263 0
M  V30 9 C -2.68496 1.05465 0.113945 0
M  V30 10 C -2.63204 -0.420767 0.426378 0
M  V30 11 C -1.25105 -0.950864 0.588965 0
M  V30 12 N -1.04875 -2.02037 -0.377457 0
M  V30 13 H 4.57593 1.31391 -0.136863 0
M  V30 14 H 5.53495 -0.0728441 -0.436692 0
M  V30 15 H 3.69468 -1.41281 -0.125912 0
M  V30 16 H 1.19858 -1.57618 0.95936 0
M  V30 17 H 1.01498 -1.14932 -0.75206 0
M  V30 18 H -0.0103989 0.50971 1.56595 0
M  V30 19 H 0.401041 1.1043 -1.27999 0
M  V30 20 H -0.0958426 2.17171 0.0442606 0
M  V30 21 H -1.89379 0.537146 -1.80688 0
M  V30 22 H -1.87277 2.32404 -1.37251 0
M  V30 23 H -3.70807 1.29407 -0.245057 0
M  V30 24 H -2.40804 1.62971 1.01482 0
M  V30 25 H -3.2563 -0.574395 1.33818 0
M  V30 26 H -3.18352 -0.935825 -0.395085 0
M  V30 27 H -1.19334 -1.44694 1.59562 0
M  V30 28 H -1.64233 -2.83068 -0.0477661 0
M  V30 29 H -1.41943 -1.76352 -1.31472 0
M  V30 END ATOM
M  V30 BEGIN BOND
M  V30 1 1 1 2
M  V30 2 1 2 3
M  V30 3 2 3 4
M  V30 4 1 3 5
M  V30 5 1 5 6
M  V30 6 1 6 7
M  V30 7 1 7 8
M  V30 8 1 8 9
M  V30 9 1 9 10
M  V30 10 1 10 11
M  V30 11 1 11 12
M  V30 12 1 11 6
M  V30 13 1 1 13
M  V30 14 1 1 14
M  V30 15 1 2 15
M  V30 16 1 5 16
M  V30 17 1 5 17
M  V30 18 1 6 18
M  V30 19 1 7 19
M  V30 20 1 7 20
M  V30 21 1 8 21
M  V30 22 1 8 22
M  V30 23 1 9 23
M  V30 24 1 9 24
M  V30 25 1 10 25
M  V30 26 1 10 26
M  V30 27 1 11 27
M  V30 28 1 12 28
M  V30 29 1 12 29
M  V30 END BOND
M  V30 END CTAB
M  END
