
     RDKit          3D

  0  0  0  0  0  0  0  0  0  0999 V3000
M  V30 BEGIN CTAB
M  V30 COUNTS 52 55 0 0 0
M  V30 BEGIN ATOM
M  V30 1 N 8.65648 0.871541 -0.432786 0
M  V30 2 C 7.52411 1.01397 -0.672276 0
M  V30 3 C 6.11353 1.2035 -1.01083 0
M  V30 4 C 5.82524 2.04523 -2.08525 0
M  V30 5 N 6.88352 2.68118 -2.76771 0
M  V30 6 N 4.53079 2.17586 -2.37928 0
M  V30 7 C 3.56953 1.52359 -1.66293 0
M  V30 8 C 3.80603 0.685206 -0.595033 0
M  V30 9 C 5.16537 0.532979 -0.275081 0
M  V30 10 C 5.69003 -0.279662 0.83534 0
M  V30 11 C 5.5688 -1.62223 1.09331 0
M  V30 12 C 6.26834 -2.13281 2.10815 0
M  V30 13 C 7.06384 -1.29075 2.82742 0
M  V30 14 S 6.81489 0.209106 2.06451 0
M  V30 15 C 2.71678 0.166671 0.00558202 0
M  V30 16 N 2.70567 -0.672143 1.20292 0
M  V30 17 C 1.49487 0.50693 -0.497163 0
M  V30 18 S 1.87538 1.54525 -1.79171 0
M  V30 19 C 0.137949 0.0926645 -0.0503781 0
M  V30 20 O 0.0959961 -0.679224 0.923127 0
M  V30 21 N -0.987524 0.572815 -0.719524 0
M  V30 22 C -2.33216 0.302728 -0.44444 0
M  V30 23 C -2.82026 -0.360832 0.657588 0
M  V30 24 C -4.1719 -0.605964 0.858087 0
M  V30 25 C -5.07547 -0.171829 -0.0779515 0
M  V30 26 C -4.65322 0.492421 -1.19234 0
M  V30 27 C -3.31361 0.721467 -1.36639 0
M  V30 28 C -6.50537 -0.467115 0.197903 0
M  V30 29 C -6.92336 0.133772 1.50121 0
M  V30 30 C -6.74149 -1.97509 0.302151 0
M  V30 31 C -7.39773 0.0280653 -0.915313 0
M  V30 32 H 7.84582 2.67654 -2.36748 0
M  V30 33 H 6.7504 3.16925 -3.67665 0
M  V30 34 H 4.91815 -2.2442 0.420728 0
M  V30 35 H 6.22427 -3.20927 2.38127 0
M  V30 36 H 7.70454 -1.55401 3.69407 0
M  V30 37 H 2.4503 -1.66181 1.1875 0
M  V30 38 H 2.97577 -0.173373 2.07733 0
M  V30 39 H -0.793329 1.22799 -1.53984 0
M  V30 40 H -2.13675 -0.703566 1.40454 0
M  V30 41 H -4.47027 -1.13754 1.75702 0
M  V30 42 H -5.36088 0.832854 -1.92589 0
M  V30 43 H -2.99041 1.24743 -2.25388 0
M  V30 44 H -7.97559 0.500528 1.38208 0
M  V30 45 H -6.99496 -0.651963 2.31019 0
M  V30 46 H -6.25073 0.946584 1.84142 0
M  V30 47 H -6.44412 -2.50481 -0.621282 0
M  V30 48 H -7.83007 -2.09026 0.537965 0
M  V30 49 H -6.20248 -2.36584 1.20684 0
M  V30 50 H -7.32072 -0.577352 -1.82607 0
M  V30 51 H -7.23419 1.09265 -1.16132 0
M  V30 52 H -8.44983 -0.0671277 -0.527806 0
M  V30 END ATOM
M  V30 BEGIN BOND
M  V30 1 3 1 2
M  V30 2 1 2 3
M  V30 3 2 3 4
M  V30 4 1 4 5
M  V30 5 1 4 6
M  V30 6 2 6 7
M  V30 7 1 7 8
M  V30 8 2 8 9
M  V30 9 1 9 10
M  V30 10 2 10 11
M  V30 11 1 11 12
M  V30 12 2 12 13
M  V30 13 1 13 14
M  V30 14 1 8 15
M  V30 15 1 15 16
M  V30 16 2 15 17
M  V30 17 1 17 18
M  V30 18 1 17 19
M  V30 19 2 19 20
M  V30 20 1 19 21
M  V30 21 1 21 22
M  V30 22 2 22 23
M  V30 23 1 23 24
M  V30 24 2 24 25
M  V30 25 1 25 26
M  V30 26 2 26 27
M  V30 27 1 25 28
M  V30 28 1 28 29
M  V30 29 1 28 30
M  V30 30 1 28 31
M  V30 31 1 9 3
M  V30 32 1 14 10
M  V30 33 1 27 22
M  V30 34 1 18 7
M  V30 35 1 5 32
M  V30 36 1 5 33
M  V30 37 1 11 34
M  V30 38 1 12 35
M  V30 39 1 13 36
M  V30 40 1 16 37
M  V30 41 1 16 38
M  V30 42 1 21 39
M  V30 43 1 23 40
M  V30 44 1 24 41
M  V30 45 1 26 42
M  V30 46 1 27 43
M  V30 47 1 29 44
M  V30 48 1 29 45
M  V30 49 1 29 46
M  V30 50 1 30 47
M  V30 51 1 30 48
M  V30 52 1 30 49
M  V30 53 1 31 50
M  V30 54 1 31 51
M  V30 55 1 31 52
M  V30 END BOND
M  V30 END CTAB
M  END
