
     RDKit          3D

  0  0  0  0  0  0  0  0  0  0999 V3000
M  V30 BEGIN CTAB
M  V30 COUNTS 18 17 0 0 0
M  V30 BEGIN ATOM
M  V30 1 N 2.81937 -0.471536 0.189758 0
M  V30 2 C 1.46026 -0.411305 -0.315949 0 MASS=14
M  V30 3 C 0.661577 0.564094 0.491038 0
M  V30 4 C -0.766497 0.680497 0.0222871 0
M  V30 5 C -1.49639 -0.656488 0.108158 0 MASS=14
M  V30 6 N -2.85985 -0.393218 -0.374497 0
M  V30 7 H 2.99412 0.304179 0.895975 0
M  V30 8 H 3.53161 -0.343874 -0.572991 0
M  V30 9 H 1.01759 -1.43915 -0.162104 0
M  V30 10 H 1.47823 -0.150831 -1.37814 0
M  V30 11 H 1.11219 1.57128 0.396365 0
M  V30 12 H 0.704825 0.297175 1.56553 0
M  V30 13 H -0.797975 0.97448 -1.04658 0
M  V30 14 H -1.30243 1.46826 0.585895 0
M  V30 15 H -1.55039 -1.0445 1.12131 0
M  V30 16 H -1.02865 -1.38374 -0.570712 0
M  V30 17 H -2.71857 0.141154 -1.28135 0
M  V30 18 H -3.25901 0.293513 0.326005 0
M  V30 END ATOM
M  V30 BEGIN BOND
M  V30 1 1 1 2
M  V30 2 1 2 3
M  V30 3 1 3 4
M  V30 4 1 4 5
M  V30 5 1 5 6
M  V30 6 1 1 7
M  V30 7 1 1 8
M  V30 8 1 2 9
M  V30 9 1 2 10
M  V30 10 1 3 11
M  V30 11 1 3 12
M  V30 12 1 4 13
M  V30 13 1 4 14
M  V30 14 1 5 15
M  V30 15 1 5 16
M  V30 16 1 6 17
M  V30 17 1 6 18
M  V30 END BOND
M  V30 END CTAB
M  END
