
     RDKit          3D

  0  0  0  0  0  0  0  0  0  0999 V3000
M  V30 BEGIN CTAB
M  V30 COUNTS 30 30 0 0 0
M  V30 BEGIN ATOM
M  V30 1 C 1.41238 1.62549 0.419034 0
M  V30 2 C 2.132 0.447348 0.996803 0
M  V30 3 C 2.73732 -0.431255 -0.0960921 0
M  V30 4 C 3.72608 0.31045 -0.941175 0
M  V30 5 C 1.32152 -0.440206 1.89963 0
M  V30 6 O 0.268818 -1.01143 1.3297 0
M  V30 7 C -0.887217 -0.927386 0.730056 0
M  V30 8 C -1.53097 -2.12054 0.339909 0
M  V30 9 N -2.72062 -2.06821 -0.276142 0
M  V30 10 C -3.33717 -0.905744 -0.542642 0
M  V30 11 C -2.7214 0.275326 -0.167603 0
M  V30 12 N -1.53683 0.203735 0.444917 0
M  V30 13 N -3.28285 1.5554 -0.399979 0
M  V30 14 N -4.59221 -0.833558 -1.19179 0
M  V30 15 H 2.17196 2.44754 0.276077 0
M  V30 16 H 0.692824 2.04908 1.14614 0
M  V30 17 H 0.964499 1.43395 -0.578602 0
M  V30 18 H 2.97459 0.872715 1.62768 0
M  V30 19 H 1.96346 -0.844196 -0.738758 0
M  V30 20 H 3.27411 -1.27557 0.382959 0
M  V30 21 H 3.33074 0.570772 -1.94564 0
M  V30 22 H 4.63732 -0.323395 -1.14374 0
M  V30 23 H 4.05289 1.21621 -0.370531 0
M  V30 24 H 1.0508 0.119617 2.85317 0
M  V30 25 H 2.00939 -1.25644 2.3275 0
M  V30 26 H -1.06598 -3.08176 0.536977 0
M  V30 27 H -3.88294 1.9812 0.330634 0
M  V30 28 H -3.07195 2.02538 -1.30044 0
M  V30 29 H -4.69674 -1.20588 -2.14498 0
M  V30 30 H -5.39384 -0.408646 -0.706192 0
M  V30 END ATOM
M  V30 BEGIN BOND
M  V30 1 1 1 2
M  V30 2 1 2 3
M  V30 3 1 3 4
M  V30 4 1 2 5
M  V30 5 1 5 6
M  V30 6 1 6 7
M  V30 7 2 7 8
M  V30 8 1 8 9
M  V30 9 2 9 10
M  V30 10 1 10 11
M  V30 11 2 11 12
M  V30 12 1 11 13
M  V30 13 1 10 14
M  V30 14 1 12 7
M  V30 15 1 1 15
M  V30 16 1 1 16
M  V30 17 1 1 17
M  V30 18 1 2 18
M  V30 19 1 3 19
M  V30 20 1 3 20
M  V30 21 1 4 21
M  V30 22 1 4 22
M  V30 23 1 4 23
M  V30 24 1 5 24
M  V30 25 1 5 25
M  V30 26 1 8 26
M  V30 27 1 13 27
M  V30 28 1 13 28
M  V30 29 1 14 29
M  V30 30 1 14 30
M  V30 END BOND
M  V30 END CTAB
M  END
