
     RDKit          3D

  0  0  0  0  0  0  0  0  0  0999 V3000
M  V30 BEGIN CTAB
M  V30 COUNTS 64 64 0 0 0
M  V30 BEGIN ATOM
M  V30 1 N 6.60402 0.487189 1.89299 0
M  V30 2 C 6.81393 -0.725973 1.18377 0
M  V30 3 C 5.49932 -1.31355 0.711989 0
M  V30 4 C 4.82752 -0.311933 -0.201326 0
M  V30 5 C 3.50127 -0.843689 -0.70899 0
M  V30 6 C 2.84822 0.198639 -1.63162 0 CFG=2
M  V30 7 C 1.55148 -0.29715 -2.14041 0
M  V30 8 O 1.54289 -0.636318 -3.37823 0
M  V30 9 N 0.372678 -0.406854 -1.35354 0
M  V30 10 C -0.825451 -0.927136 -1.9865 0
M  V30 11 C -1.20813 -0.192826 -3.21926 0
M  V30 12 C -2.585 0.353954 -3.27997 0
M  V30 13 C -3.66978 -0.470183 -2.69722 0
M  V30 14 C -4.52104 0.386422 -1.75563 0
M  V30 15 C -4.47477 -0.122359 -0.332812 0
M  V30 16 O -3.4413 0.539626 0.317137 0
M  V30 17 C -3.10424 -0.0744858 1.52507 0 CFG=1
M  V30 18 C -1.60844 -0.241904 1.53213 0 CFG=1
M  V30 19 C -0.912274 0.611248 0.503311 0 CFG=2
M  V30 20 C 0.391784 0.00225158 0.0302208 0
M  V30 21 O -0.702039 1.86785 1.08294 0
M  V30 22 O -1.02829 -0.124973 2.78562 0
M  V30 23 C -3.64303 0.815637 2.60501 0 CFG=1
M  V30 24 C -3.69827 0.196405 3.97023 0
M  V30 25 O -4.54151 1.02853 4.75085 0
M  V30 26 O -3.1281 2.09039 2.62062 0
M  V30 27 N 3.79512 0.399437 -2.74722 0
M  V30 28 H 6.70589 0.351132 2.90355 0
M  V30 29 H 7.20578 1.23038 1.56861 0
M  V30 30 H 7.2598 -1.48875 1.88722 0
M  V30 31 H 7.513 -0.53647 0.345121 0
M  V30 32 H 4.89492 -1.50735 1.62152 0
M  V30 33 H 5.64582 -2.23963 0.130081 0
M  V30 34 H 4.71179 0.624329 0.356084 0
M  V30 35 H 5.50097 -0.185486 -1.08729 0
M  V30 36 H 2.86423 -1.04197 0.168483 0
M  V30 37 H 3.64513 -1.80642 -1.22675 0
M  V30 38 H 2.81388 1.13246 -1.081 0
M  V30 39 H -0.582679 -1.98513 -2.31907 0
M  V30 40 H -1.60803 -1.06257 -1.23133 0
M  V30 41 H -0.516532 0.699675 -3.29155 0
M  V30 42 H -0.993233 -0.762622 -4.16117 0
M  V30 43 H -2.8238 0.526202 -4.37177 0
M  V30 44 H -2.6367 1.40377 -2.85871 0
M  V30 45 H -3.35797 -1.40224 -2.19432 0
M  V30 46 H -4.3884 -0.823179 -3.4961 0
M  V30 47 H -5.58272 0.433148 -2.0784 0
M  V30 48 H -4.14579 1.43452 -1.74051 0
M  V30 49 H -5.45899 0.0391199 0.137733 0
M  V30 50 H -4.28955 -1.23301 -0.379162 0
M  V30 51 H -3.63465 -1.04708 1.60671 0
M  V30 52 H -1.43512 -1.32484 1.24186 0
M  V30 53 H -1.5543 0.761531 -0.35381 0
M  V30 54 H 0.543413 -0.896319 0.663996 0
M  V30 55 H 1.24309 0.687758 0.25034 0
M  V30 56 H 0.121196 2.2434 0.675574 0
M  V30 57 H -0.0836241 -0.347604 2.69246 0
M  V30 58 H -4.74043 0.959799 2.31286 0
M  V30 59 H -2.71741 0.267787 4.48125 0
M  V30 60 H -4.13006 -0.801136 3.99146 0
M  V30 61 H -4.41194 1.95904 4.46409 0
M  V30 62 H -3.47469 2.57128 1.8121 0
M  V30 63 H 3.54075 1.30323 -3.17661 0
M  V30 64 H 3.70039 -0.424994 -3.36559 0
M  V30 END ATOM
M  V30 BEGIN BOND
M  V30 1 1 1 2
M  V30 2 1 2 3
M  V30 3 1 3 4
M  V30 4 1 4 5
M  V30 5 1 5 6
M  V30 6 1 6 7
M  V30 7 2 7 8
M  V30 8 1 7 9
M  V30 9 1 9 10
M  V30 10 1 10 11
M  V30 11 1 11 12
M  V30 12 1 12 13
M  V30 13 1 13 14
M  V30 14 1 14 15
M  V30 15 1 15 16
M  V30 16 1 16 17
M  V30 17 1 17 18
M  V30 18 1 18 19
M  V30 19 1 19 20
M  V30 20 1 19 21
M  V30 21 1 18 22
M  V30 22 1 17 23
M  V30 23 1 23 24
M  V30 24 1 24 25
M  V30 25 1 23 26
M  V30 26 1 6 27
M  V30 27 1 20 9
M  V30 28 1 1 28
M  V30 29 1 1 29
M  V30 30 1 2 30
M  V30 31 1 2 31
M  V30 32 1 3 32
M  V30 33 1 3 33
M  V30 34 1 4 34
M  V30 35 1 4 35
M  V30 36 1 5 36
M  V30 37 1 5 37
M  V30 38 1 6 38 CFG=1
M  V30 39 1 10 39
M  V30 40 1 10 40
M  V30 41 1 11 41
M  V30 42 1 11 42
M  V30 43 1 12 43
M  V30 44 1 12 44
M  V30 45 1 13 45
M  V30 46 1 13 46
M  V30 47 1 14 47
M  V30 48 1 14 48
M  V30 49 1 15 49
M  V30 50 1 15 50
M  V30 51 1 17 51 CFG=3
M  V30 52 1 18 52 CFG=3
M  V30 53 1 19 53 CFG=3
M  V30 54 1 20 54
M  V30 55 1 20 55
M  V30 56 1 21 56
M  V30 57 1 22 57
M  V30 58 1 23 58 CFG=3
M  V30 59 1 24 59
M  V30 60 1 24 60
M  V30 61 1 25 61
M  V30 62 1 26 62
M  V30 63 1 27 63
M  V30 64 1 27 64
M  V30 END BOND
M  V30 END CTAB
M  END
