
     RDKit          3D

  0  0  0  0  0  0  0  0  0  0999 V3000
M  V30 BEGIN CTAB
M  V30 COUNTS 57 61 0 0 0
M  V30 BEGIN ATOM
M  V30 1 C -6.78759 -2.00407 -0.586486 0
M  V30 2 C -6.0413 -0.773435 -1.08838 0
M  V30 3 N -5.358 -0.172476 0.0410553 0
M  V30 4 C -4.08529 -0.497523 0.407181 0
M  V30 5 C -3.1225 -1.37309 -0.0753516 0
M  V30 6 C -1.89 -1.47551 0.535615 0
M  V30 7 O -0.92562 -2.34661 0.0596952 0
M  V30 8 C -0.0438591 -2.06128 -0.960347 0
M  V30 9 C -0.335485 -2.3243 -2.27277 0
M  V30 10 C 0.572612 -2.02674 -3.28605 0
M  V30 11 C 1.77031 -1.46917 -3.00306 0
M  V30 12 C 2.10246 -1.187 -1.67425 0
M  V30 13 N 3.34887 -0.572315 -1.38615 0
M  V30 14 C 4.00803 -0.684374 -0.17916 0
M  V30 15 O 3.57909 -1.35031 0.779917 0
M  V30 16 C 5.29823 0.0099119 0.0236701 0
M  V30 17 C 6.12767 -0.355255 1.06856 0
M  V30 18 C 7.32673 0.283925 1.27642 0
M  V30 19 C 7.76457 1.30981 0.467783 0
M  V30 20 C 9.06371 1.98813 0.710186 0
M  V30 21 N 9.68054 1.41303 1.88665 0
M  V30 22 C 6.93245 1.66577 -0.568796 0
M  V30 23 C 5.70422 1.02679 -0.799048 0
M  V30 24 C 1.20535 -1.48121 -0.685337 0
M  V30 25 N -1.61543 -0.712096 1.62016 0
M  V30 26 C -2.50778 0.150351 2.12879 0
M  V30 27 C -3.73273 0.244998 1.51302 0
M  V30 28 N -4.79182 1.00708 1.80148 0
M  V30 29 C -5.79218 0.760178 0.907794 0
M  V30 30 C -7.10523 1.39987 0.901017 0
M  V30 31 N -8.14276 1.22169 0.0688851 0
M  V30 32 O -9.09672 1.99783 0.440549 0
M  V30 33 N -8.75791 2.69109 1.48032 0
M  V30 34 C -7.50318 2.36278 1.82902 0
M  V30 35 N -6.71736 2.86142 2.89948 0
M  V30 36 H -6.03534 -2.71384 -0.170246 0
M  V30 37 H -7.48044 -1.74996 0.238581 0
M  V30 38 H -7.29806 -2.46018 -1.45433 0
M  V30 39 H -6.72623 -0.104753 -1.60228 0
M  V30 40 H -5.28337 -1.12694 -1.82306 0
M  V30 41 H -3.37608 -1.97257 -0.949698 0
M  V30 42 H -1.29159 -2.77093 -2.51004 0
M  V30 43 H 0.337488 -2.23673 -4.32945 0
M  V30 44 H 2.52285 -1.2131 -3.74997 0
M  V30 45 H 3.79538 0.0108909 -2.17449 0
M  V30 46 H 5.77816 -1.16395 1.70272 0
M  V30 47 H 7.96687 -0.00943228 2.09587 0
M  V30 48 H 8.87471 3.061 0.920201 0
M  V30 49 H 9.72879 1.93491 -0.173395 0
M  V30 50 H 10.6609 1.75919 1.99121 0
M  V30 51 H 9.15894 1.83764 2.7117 0
M  V30 52 H 7.2352 2.47211 -1.23633 0
M  V30 53 H 5.10214 1.36349 -1.62845 0
M  V30 54 H 1.36924 -1.27786 0.373947 0
M  V30 55 H -2.29302 0.758927 2.99077 0
M  V30 56 H -5.85003 3.42937 2.79431 0
M  V30 57 H -7.0286 2.64482 3.87029 0
M  V30 END ATOM
M  V30 BEGIN BOND
M  V30 1 1 1 2
M  V30 2 1 2 3
M  V30 3 1 3 4
M  V30 4 2 4 5
M  V30 5 1 5 6
M  V30 6 1 6 7
M  V30 7 1 7 8
M  V30 8 2 8 9
M  V30 9 1 9 10
M  V30 10 2 10 11
M  V30 11 1 11 12
M  V30 12 1 12 13
M  V30 13 1 13 14
M  V30 14 2 14 15
M  V30 15 1 14 16
M  V30 16 2 16 17
M  V30 17 1 17 18
M  V30 18 2 18 19
M  V30 19 1 19 20
M  V30 20 1 20 21
M  V30 21 1 19 22
M  V30 22 2 22 23
M  V30 23 2 12 24
M  V30 24 2 6 25
M  V30 25 1 25 26
M  V30 26 2 26 27
M  V30 27 1 27 28
M  V30 28 2 28 29
M  V30 29 1 29 30
M  V30 30 2 30 31
M  V30 31 1 31 32
M  V30 32 1 32 33
M  V30 33 2 33 34
M  V30 34 1 34 35
M  V30 35 1 29 3
M  V30 36 1 34 30
M  V30 37 1 27 4
M  V30 38 1 24 8
M  V30 39 1 23 16
M  V30 40 1 1 36
M  V30 41 1 1 37
M  V30 42 1 1 38
M  V30 43 1 2 39
M  V30 44 1 2 40
M  V30 45 1 5 41
M  V30 46 1 9 42
M  V30 47 1 10 43
M  V30 48 1 11 44
M  V30 49 1 13 45
M  V30 50 1 17 46
M  V30 51 1 18 47
M  V30 52 1 20 48
M  V30 53 1 20 49
M  V30 54 1 21 50
M  V30 55 1 21 51
M  V30 56 1 22 52
M  V30 57 1 23 53
M  V30 58 1 24 54
M  V30 59 1 26 55
M  V30 60 1 35 56
M  V30 61 1 35 57
M  V30 END BOND
M  V30 END CTAB
M  END
