
     RDKit          3D

  0  0  0  0  0  0  0  0  0  0999 V3000
M  V30 BEGIN CTAB
M  V30 COUNTS 31 31 0 0 0
M  V30 BEGIN ATOM
M  V30 1 N 4.36762 -0.0136772 1.26274 0
M  V30 2 C 3.06905 -0.620385 0.999458 0
M  V30 3 C 2.35947 0.166015 -0.0458176 0
M  V30 4 N 1.04756 -0.322319 -0.407605 0
M  V30 5 C 0.643136 0.559268 -1.53311 0
M  V30 6 C -0.690627 0.112443 -2.03566 0
M  V30 7 O -1.66414 0.576953 -1.1477 0
M  V30 8 C -2.06788 -0.517216 -0.388464 0 CFG=1
M  V30 9 C -1.09532 -0.871057 0.693722 0
M  V30 10 C 0.141278 -0.0195527 0.684258 0
M  V30 11 C -3.444 -0.201829 0.141946 0
M  V30 12 N -3.45335 0.988884 0.96523 0
M  V30 13 H 4.90183 0.00791459 0.366797 0
M  V30 14 H 4.26751 0.989597 1.55467 0
M  V30 15 H 3.28994 -1.63301 0.534428 0
M  V30 16 H 2.50507 -0.847439 1.91266 0
M  V30 17 H 2.94863 0.284379 -0.979323 0
M  V30 18 H 2.20057 1.20764 0.336898 0
M  V30 19 H 0.600627 1.57612 -1.09505 0
M  V30 20 H 1.44575 0.5316 -2.2991 0
M  V30 21 H -0.662626 -1.01208 -2.07346 0
M  V30 22 H -0.895549 0.430975 -3.07647 0
M  V30 23 H -2.16462 -1.39823 -1.06041 0
M  V30 24 H -0.767555 -1.93586 0.674349 0
M  V30 25 H -1.56295 -0.721901 1.71079 0
M  V30 26 H 0.67067 -0.183965 1.63043 0
M  V30 27 H -0.117276 1.07293 0.64306 0
M  V30 28 H -3.86144 -1.01617 0.780592 0
M  V30 29 H -4.17689 -0.0432037 -0.673109 0
M  V30 30 H -4.28381 1.0128 1.58834 0
M  V30 31 H -3.55068 1.84038 0.334912 0
M  V30 END ATOM
M  V30 BEGIN BOND
M  V30 1 1 1 2
M  V30 2 1 2 3
M  V30 3 1 3 4
M  V30 4 1 4 5
M  V30 5 1 5 6
M  V30 6 1 6 7
M  V30 7 1 7 8
M  V30 8 1 8 9
M  V30 9 1 9 10
M  V30 10 1 8 11
M  V30 11 1 11 12
M  V30 12 1 10 4
M  V30 13 1 1 13
M  V30 14 1 1 14
M  V30 15 1 2 15
M  V30 16 1 2 16
M  V30 17 1 3 17
M  V30 18 1 3 18
M  V30 19 1 5 19
M  V30 20 1 5 20
M  V30 21 1 6 21
M  V30 22 1 6 22
M  V30 23 1 8 23 CFG=3
M  V30 24 1 9 24
M  V30 25 1 9 25
M  V30 26 1 10 26
M  V30 27 1 10 27
M  V30 28 1 11 28
M  V30 29 1 11 29
M  V30 30 1 12 30
M  V30 31 1 12 31
M  V30 END BOND
M  V30 END CTAB
M  END
