
     RDKit          3D

  0  0  0  0  0  0  0  0  0  0999 V3000
M  V30 BEGIN CTAB
M  V30 COUNTS 26 27 0 0 0
M  V30 BEGIN ATOM
M  V30 1 O 3.4991 -0.45989 2.10816 0
M  V30 2 C 2.65288 -0.0467662 1.08428 0
M  V30 3 C 3.52289 0.508704 -0.0596945 0
M  V30 4 C 2.44601 -0.0767638 -0.986969 0
M  V30 5 C 2.22742 -1.10298 0.110819 0
M  V30 6 S 0.680162 -1.87912 0.263765 0
M  V30 7 C -0.755211 -0.920645 0.0217523 0
M  V30 8 N -1.95318 -1.55804 0.148387 0
M  V30 9 C -3.12792 -0.938061 -0.0118031 0
M  V30 10 N -4.37819 -1.58639 0.116621 0
M  V30 11 C -3.14052 0.399629 -0.317473 0
M  V30 12 C -1.94383 1.05648 -0.448454 0
M  V30 13 N -0.815165 0.37172 -0.274286 0
M  V30 14 N -1.98878 2.43641 -0.764 0
M  V30 15 H 3.34639 0.130095 2.88694 0
M  V30 16 H 1.92313 0.72977 1.33963 0
M  V30 17 H 3.61132 1.59251 -0.0792691 0
M  V30 18 H 4.45071 -0.0805722 -0.219246 0
M  V30 19 H 2.84472 -0.529727 -1.90684 0
M  V30 20 H 1.60371 0.618729 -1.15449 0
M  V30 21 H 3.06474 -1.857 0.0175289 0
M  V30 22 H -4.8719 -1.55168 1.02112 0
M  V30 23 H -4.79821 -2.08951 -0.678592 0
M  V30 24 H -4.08997 0.940089 -0.455955 0
M  V30 25 H -2.51461 3.09782 -0.156057 0
M  V30 26 H -1.49568 2.79518 -1.60587 0
M  V30 END ATOM
M  V30 BEGIN BOND
M  V30 1 1 1 2
M  V30 2 1 2 3
M  V30 3 1 3 4
M  V30 4 1 4 5
M  V30 5 1 5 6
M  V30 6 1 6 7
M  V30 7 2 7 8
M  V30 8 1 8 9
M  V30 9 1 9 10
M  V30 10 2 9 11
M  V30 11 1 11 12
M  V30 12 2 12 13
M  V30 13 1 12 14
M  V30 14 1 5 2
M  V30 15 1 13 7
M  V30 16 1 1 15
M  V30 17 1 2 16
M  V30 18 1 3 17
M  V30 19 1 3 18
M  V30 20 1 4 19
M  V30 21 1 4 20
M  V30 22 1 5 21
M  V30 23 1 10 22
M  V30 24 1 10 23
M  V30 25 1 11 24
M  V30 26 1 14 25
M  V30 27 1 14 26
M  V30 END BOND
M  V30 END CTAB
M  END
