
     RDKit          3D

  0  0  0  0  0  0  0  0  0  0999 V3000
M  V30 BEGIN CTAB
M  V30 COUNTS 32 33 0 0 0
M  V30 BEGIN ATOM
M  V30 1 O -0.827547 0.590194 -1.61847 0
M  V30 2 C -0.112069 -0.17469 -0.931775 0
M  V30 3 C 1.3135 0.146744 -0.699241 0
M  V30 4 C 1.88537 1.27882 -1.2233 0
M  V30 5 C 3.22349 1.52392 -0.97017 0
M  V30 6 C 4.00799 0.67541 -0.211141 0
M  V30 7 C 3.39595 -0.454929 0.299723 0
M  V30 8 C 2.05356 -0.722338 0.0590337 0
M  V30 9 N 4.17684 -1.34783 1.08498 0
M  V30 10 N 5.3777 0.940969 0.0389511 0
M  V30 11 O -0.673988 -1.31839 -0.397573 0
M  V30 12 C -2.01544 -1.71564 -0.557153 0
M  V30 13 C -2.99238 -0.73095 -0.0229791 0
M  V30 14 C -3.17161 -0.609615 1.35922 0
M  V30 15 C -4.07569 0.290849 1.88043 0
M  V30 16 C -4.83961 1.10749 1.07297 0
M  V30 17 C -4.66928 0.994296 -0.289941 0
M  V30 18 C -3.76736 0.0958443 -0.808308 0
M  V30 19 H 1.30837 1.97052 -1.82319 0
M  V30 20 H 3.67819 2.41569 -1.38171 0
M  V30 21 H 1.58062 -1.61569 0.466047 0
M  V30 22 H 5.13638 -1.66135 0.816536 0
M  V30 23 H 3.73075 -1.69113 1.97948 0
M  V30 24 H 6.10933 0.430389 -0.491171 0
M  V30 25 H 5.67272 1.63493 0.74059 0
M  V30 26 H -2.18947 -1.9023 -1.63589 0
M  V30 27 H -2.11457 -2.70154 -0.0550812 0
M  V30 28 H -2.57042 -1.25277 2.00529 0
M  V30 29 H -4.19376 0.363625 2.95118 0
M  V30 30 H -5.54857 1.81223 1.5137 0
M  V30 31 H -5.24744 1.61527 -0.966338 0
M  V30 32 H -3.64155 0.0119906 -1.89302 0
M  V30 END ATOM
M  V30 BEGIN BOND
M  V30 1 2 1 2
M  V30 2 1 2 3
M  V30 3 2 3 4
M  V30 4 1 4 5
M  V30 5 2 5 6
M  V30 6 1 6 7
M  V30 7 2 7 8
M  V30 8 1 7 9
M  V30 9 1 6 10
M  V30 10 1 2 11
M  V30 11 1 11 12
M  V30 12 1 12 13
M  V30 13 2 13 14
M  V30 14 1 14 15
M  V30 15 2 15 16
M  V30 16 1 16 17
M  V30 17 2 17 18
M  V30 18 1 8 3
M  V30 19 1 18 13
M  V30 20 1 4 19
M  V30 21 1 5 20
M  V30 22 1 8 21
M  V30 23 1 9 22
M  V30 24 1 9 23
M  V30 25 1 10 24
M  V30 26 1 10 25
M  V30 27 1 12 26
M  V30 28 1 12 27
M  V30 29 1 14 28
M  V30 30 1 15 29
M  V30 31 1 16 30
M  V30 32 1 17 31
M  V30 33 1 18 32
M  V30 END BOND
M  V30 END CTAB
M  END
