
     RDKit          3D

  0  0  0  0  0  0  0  0  0  0999 V3000
M  V30 BEGIN CTAB
M  V30 COUNTS 34 33 0 0 0
M  V30 BEGIN ATOM
M  V30 1 C 3.61052 0.200218 -0.349933 0 CFG=1
M  V30 2 C 4.63526 1.02752 0.415659 0
M  V30 3 N 2.30312 0.669732 -0.00178367 0
M  V30 4 C 1.38403 -0.159724 0.659018 0
M  V30 5 O 1.69138 -1.34001 0.961071 0
M  V30 6 C 0.0305858 0.313907 1.02389 0 CFG=1
M  V30 7 N -0.240917 1.65403 0.650055 0
M  V30 8 C -0.977366 -0.594412 0.365165 0
M  V30 9 C -2.40084 -0.181037 0.686354 0
M  V30 10 C -3.30466 -1.18333 -0.0429675 0
M  V30 11 C -4.76176 -0.859741 0.212418 0
M  V30 12 N -5.55633 -1.83791 -0.500375 0
M  V30 13 C 3.82542 0.263754 -1.79104 0
M  V30 14 O 4.999 -0.126593 -2.40935 0
M  V30 15 O 2.90638 0.695281 -2.54448 0
M  V30 16 H 3.73823 -0.851223 -0.023077 0
M  V30 17 H 5.50172 0.379937 0.654712 0
M  V30 18 H 4.147 1.35016 1.35922 0
M  V30 19 H 4.96291 1.90219 -0.190255 0
M  V30 20 H 2.03357 1.64691 -0.245898 0
M  V30 21 H -0.0635354 0.19955 2.12357 0
M  V30 22 H -0.386675 2.33369 1.38138 0
M  V30 23 H 0.0159776 1.95344 -0.274418 0
M  V30 24 H -0.863655 -0.595647 -0.730718 0
M  V30 25 H -0.864828 -1.64878 0.702647 0
M  V30 26 H -2.62142 -0.180364 1.75873 0
M  V30 27 H -2.60288 0.811968 0.267827 0
M  V30 28 H -3.12529 -2.21844 0.312331 0
M  V30 29 H -3.10087 -1.17253 -1.12902 0
M  V30 30 H -4.95914 -0.962371 1.29478 0
M  V30 31 H -5.02115 0.153251 -0.131308 0
M  V30 32 H -5.29165 -2.79256 -0.190588 0
M  V30 33 H -5.3143 -1.76029 -1.53197 0
M  V30 34 H 5.67216 0.542202 -2.74165 0
M  V30 END ATOM
M  V30 BEGIN BOND
M  V30 1 1 1 2
M  V30 2 1 1 3
M  V30 3 1 3 4
M  V30 4 2 4 5
M  V30 5 1 4 6
M  V30 6 1 6 7
M  V30 7 1 6 8
M  V30 8 1 8 9
M  V30 9 1 9 10
M  V30 10 1 10 11
M  V30 11 1 11 12
M  V30 12 1 1 13
M  V30 13 1 13 14
M  V30 14 2 13 15
M  V30 15 1 1 16 CFG=1
M  V30 16 1 2 17
M  V30 17 1 2 18
M  V30 18 1 2 19
M  V30 19 1 3 20
M  V30 20 1 6 21 CFG=1
M  V30 21 1 7 22
M  V30 22 1 7 23
M  V30 23 1 8 24
M  V30 24 1 8 25
M  V30 25 1 9 26
M  V30 26 1 9 27
M  V30 27 1 10 28
M  V30 28 1 10 29
M  V30 29 1 11 30
M  V30 30 1 11 31
M  V30 31 1 12 32
M  V30 32 1 12 33
M  V30 33 1 14 34
M  V30 END BOND
M  V30 END CTAB
M  END
