
     RDKit          3D

  0  0  0  0  0  0  0  0  0  0999 V3000
M  V30 BEGIN CTAB
M  V30 COUNTS 24 24 0 0 0
M  V30 BEGIN ATOM
M  V30 1 N -3.16896 -0.974013 0.0382704 0
M  V30 2 C -2.14249 -0.0545057 -0.330006 0
M  V30 3 C -1.63487 0.763191 0.865877 0
M  V30 4 C -0.41726 1.4271 0.21173 0
M  V30 5 C 0.267365 0.208101 -0.372141 0
M  V30 6 C -0.842687 -0.769198 -0.724971 0
M  V30 7 N 1.14033 -0.435288 0.559679 0
M  V30 8 S 2.73234 -0.660995 -0.00125356 0
M  V30 9 O 3.32862 -1.93714 0.571642 0
M  V30 10 O 2.74484 -0.829528 -1.4947 0
M  V30 11 N 3.69805 0.70336 0.409587 0
M  V30 12 H -4.09901 -0.576915 -0.261119 0
M  V30 13 H -3.20491 -1.20712 1.05349 0
M  V30 14 H -2.41767 0.674836 -1.09815 0
M  V30 15 H -2.36697 1.48282 1.21913 0
M  V30 16 H -1.24774 0.0682396 1.63164 0
M  V30 17 H -0.805824 2.03762 -0.60814 0
M  V30 18 H 0.187303 1.97533 0.927443 0
M  V30 19 H 0.828418 0.434242 -1.29897 0
M  V30 20 H -0.872326 -0.971593 -1.80042 0
M  V30 21 H -0.774524 -1.69907 -0.131628 0
M  V30 22 H 0.732299 -1.26952 1.02625 0
M  V30 23 H 4.59261 0.744749 -0.0924246 0
M  V30 24 H 3.74308 0.865289 1.42798 0
M  V30 END ATOM
M  V30 BEGIN BOND
M  V30 1 1 1 2
M  V30 2 1 2 3
M  V30 3 1 3 4
M  V30 4 1 4 5
M  V30 5 1 5 6
M  V30 6 1 5 7
M  V30 7 1 7 8
M  V30 8 2 8 9
M  V30 9 2 8 10
M  V30 10 1 8 11
M  V30 11 1 6 2
M  V30 12 1 1 12
M  V30 13 1 1 13
M  V30 14 1 2 14
M  V30 15 1 3 15
M  V30 16 1 3 16
M  V30 17 1 4 17
M  V30 18 1 4 18
M  V30 19 1 5 19
M  V30 20 1 6 20
M  V30 21 1 6 21
M  V30 22 1 7 22
M  V30 23 1 11 23
M  V30 24 1 11 24
M  V30 END BOND
M  V30 END CTAB
M  END
