
     RDKit          3D

  0  0  0  0  0  0  0  0  0  0999 V3000
M  V30 BEGIN CTAB
M  V30 COUNTS 67 69 0 0 0
M  V30 BEGIN ATOM
M  V30 1 C -4.23005 0.70278 -0.875501 0 CFG=2
M  V30 2 C -4.36434 0.32931 -2.32669 0
M  V30 3 C -5.68657 0.536567 -2.95286 0
M  V30 4 C -6.19593 1.90923 -2.97778 0
M  V30 5 O -6.59538 2.48281 -4.16727 0
M  V30 6 O -6.27359 2.57801 -1.92807 0
M  V30 7 N -2.82478 0.402233 -0.55198 0
M  V30 8 C -1.95308 1.48365 -0.307021 0
M  V30 9 O -2.36775 2.64826 -0.358925 0
M  V30 10 C -0.550433 1.15652 0.00430298 0
M  V30 11 C 0.471227 2.06369 -0.263939 0
M  V30 12 C 1.7846 1.75456 0.0149353 0
M  V30 13 C 2.15313 0.54055 0.569059 0
M  V30 14 C 1.13184 -0.362824 0.837324 0
M  V30 15 C -0.195634 -0.0437535 0.552899 0
M  V30 16 N 3.50529 0.206684 0.833605 0
M  V30 17 C 4.11294 0.650747 2.0564 0
M  V30 18 C 4.26026 -0.582699 -0.106754 0
M  V30 19 C 5.66006 -0.818582 0.27899 0
M  V30 20 N 6.64674 -0.15471 -0.391688 0
M  V30 21 C 7.93153 -0.364987 -0.0507577 0
M  V30 22 C 8.92877 0.326691 -0.75437 0
M  V30 23 N 8.57477 1.21851 -1.7919 0
M  V30 24 N 10.1945 0.0895797 -0.385331 0
M  V30 25 C 10.5016 -0.767966 0.608826 0
M  V30 26 N 11.8798 -0.965863 0.943611 0
M  V30 27 N 9.55318 -1.42893 1.28026 0
M  V30 28 C 8.26824 -1.23226 0.95596 0
M  V30 29 N 7.31006 -1.88985 1.62258 0
M  V30 30 C 6.00555 -1.69486 1.29755 0
M  V30 31 C -5.05242 -0.163463 -0.00479915 0
M  V30 32 O -4.5116 -0.939014 0.81813 0
M  V30 33 O -6.44184 -0.195997 -0.0188263 0
M  V30 34 C -7.23979 -1.01378 0.79501 0
M  V30 35 C -8.6972 -0.703594 0.422266 0
M  V30 36 C -7.13431 -0.701062 2.26868 0
M  V30 37 C -7.01722 -2.47194 0.585201 0
M  V30 38 H -4.35971 1.77902 -0.717204 0
M  V30 39 H -3.61618 0.94488 -2.86816 0
M  V30 40 H -4.07052 -0.719095 -2.43277 0
M  V30 41 H -6.49781 -0.0904363 -2.50664 0
M  V30 42 H -5.60541 0.127532 -4.00503 0
M  V30 43 H -6.35045 3.43475 -4.43311 0
M  V30 44 H -2.50302 -0.594026 -0.512321 0
M  V30 45 H 0.206073 3.01699 -0.697336 0
M  V30 46 H 2.61086 2.44982 -0.186431 0
M  V30 47 H 1.38639 -1.31088 1.26568 0
M  V30 48 H -0.972267 -0.774268 0.77618 0
M  V30 49 H 5.09812 1.10819 1.86966 0
M  V30 50 H 4.30948 -0.199506 2.75596 0
M  V30 51 H 3.5003 1.43389 2.56915 0
M  V30 52 H 3.75878 -1.55387 -0.323717 0
M  V30 53 H 4.2407 -0.0179608 -1.06581 0
M  V30 54 H 8.48132 0.855001 -2.77562 0
M  V30 55 H 8.39093 2.23667 -1.6709 0
M  V30 56 H 12.2725 -1.93833 0.872068 0
M  V30 57 H 12.4677 -0.176728 1.24428 0
M  V30 58 H 5.19571 -2.21202 1.81457 0
M  V30 59 H -8.94471 -1.37813 -0.417421 0
M  V30 60 H -9.36823 -0.877584 1.26923 0
M  V30 61 H -8.75501 0.337244 0.0409029 0
M  V30 62 H -6.97893 0.374427 2.43385 0
M  V30 63 H -8.10481 -0.954417 2.78092 0
M  V30 64 H -6.34608 -1.26795 2.78448 0
M  V30 65 H -7.8386 -2.88331 -0.0324825 0
M  V30 66 H -6.08471 -2.69977 0.0258949 0
M  V30 67 H -7.06458 -3.03438 1.54985 0
M  V30 END ATOM
M  V30 BEGIN BOND
M  V30 1 1 1 2
M  V30 2 1 2 3
M  V30 3 1 3 4
M  V30 4 1 4 5
M  V30 5 2 4 6
M  V30 6 1 1 7
M  V30 7 1 7 8
M  V30 8 2 8 9
M  V30 9 1 8 10
M  V30 10 2 10 11
M  V30 11 1 11 12
M  V30 12 2 12 13
M  V30 13 1 13 14
M  V30 14 2 14 15
M  V30 15 1 13 16
M  V30 16 1 16 17
M  V30 17 1 16 18
M  V30 18 1 18 19
M  V30 19 2 19 20
M  V30 20 1 20 21
M  V30 21 2 21 22
M  V30 22 1 22 23
M  V30 23 1 22 24
M  V30 24 2 24 25
M  V30 25 1 25 26
M  V30 26 1 25 27
M  V30 27 2 27 28
M  V30 28 1 28 29
M  V30 29 2 29 30
M  V30 30 1 1 31
M  V30 31 2 31 32
M  V30 32 1 31 33
M  V30 33 1 33 34
M  V30 34 1 34 35
M  V30 35 1 34 36
M  V30 36 1 34 37
M  V30 37 1 15 10
M  V30 38 1 30 19
M  V30 39 1 28 21
M  V30 40 1 1 38 CFG=3
M  V30 41 1 2 39
M  V30 42 1 2 40
M  V30 43 1 3 41
M  V30 44 1 3 42
M  V30 45 1 5 43
M  V30 46 1 7 44
M  V30 47 1 11 45
M  V30 48 1 12 46
M  V30 49 1 14 47
M  V30 50 1 15 48
M  V30 51 1 17 49
M  V30 52 1 17 50
M  V30 53 1 17 51
M  V30 54 1 18 52
M  V30 55 1 18 53
M  V30 56 1 23 54
M  V30 57 1 23 55
M  V30 58 1 26 56
M  V30 59 1 26 57
M  V30 60 1 30 58
M  V30 61 1 35 59
M  V30 62 1 35 60
M  V30 63 1 35 61
M  V30 64 1 36 62
M  V30 65 1 36 63
M  V30 66 1 36 64
M  V30 67 1 37 65
M  V30 68 1 37 66
M  V30 69 1 37 67
M  V30 END BOND
M  V30 END CTAB
M  END
