
     RDKit          3D

  0  0  0  0  0  0  0  0  0  0999 V3000
M  V30 BEGIN CTAB
M  V30 COUNTS 37 38 0 0 0
M  V30 BEGIN ATOM
M  V30 1 C -3.86032 1.99363 1.75743 0
M  V30 2 O -3.24971 1.7 0.512536 0
M  V30 3 C -3.08224 0.413285 0.0186577 0
M  V30 4 O -3.50533 -0.526603 0.736947 0
M  V30 5 C -2.43521 0.25678 -1.28024 0 CFG=1
M  V30 6 C -0.970735 0.417569 -1.38001 0 CFG=1
M  V30 7 N -0.143049 -0.149443 -0.347919 0
M  V30 8 C 0.957878 0.62646 0.11277 0
M  V30 9 O 1.21077 1.78835 -0.366601 0
M  V30 10 C 1.90819 0.19073 1.16815 0
M  V30 11 N 1.55861 -1.1288 1.59091 0
M  V30 12 C 3.32042 0.191461 0.614966 0
M  V30 13 C 3.78118 -0.794868 -0.220299 0
M  V30 14 S 5.38258 -0.282104 -0.517806 0
M  V30 15 C 5.37294 1.13824 0.424934 0
M  V30 16 N 6.41278 2.09437 0.642607 0
M  V30 17 N 4.1596 1.15213 0.916632 0
M  V30 18 C -1.11382 -0.597092 -2.46014 0
M  V30 19 O -0.572191 -0.935552 -3.52758 0
M  V30 20 N -2.23088 -1.09799 -1.73716 0
M  V30 21 S -2.94723 -2.65093 -1.55113 0
M  V30 22 O -4.59506 -2.48603 -1.86736 0
M  V30 23 O -2.73673 -3.16156 -0.152071 0
M  V30 24 O -2.36252 -3.60426 -2.52757 0
M  V30 25 H -4.76001 2.62211 1.53459 0
M  V30 26 H -4.25373 1.06776 2.23796 0
M  V30 27 H -3.21793 2.59182 2.41026 0
M  V30 28 H -2.92181 0.835698 -2.12107 0
M  V30 29 H -0.631568 1.42492 -1.72721 0
M  V30 30 H -0.279912 -1.06868 0.0867876 0
M  V30 31 H 1.83476 0.841577 2.07587 0
M  V30 32 H 0.653681 -1.16077 2.06882 0
M  V30 33 H 1.51861 -1.75106 0.75629 0
M  V30 34 H 3.22982 -1.68053 -0.586944 0
M  V30 35 H 7.3278 1.81366 1.05376 0
M  V30 36 H 6.30812 3.11638 0.401914 0
M  V30 37 H -5.06774 -3.20064 -1.38273 0
M  V30 END ATOM
M  V30 BEGIN BOND
M  V30 1 1 1 2
M  V30 2 1 2 3
M  V30 3 2 3 4
M  V30 4 1 3 5
M  V30 5 1 5 6
M  V30 6 1 6 7
M  V30 7 1 7 8
M  V30 8 2 8 9
M  V30 9 1 8 10
M  V30 10 1 10 11
M  V30 11 1 10 12
M  V30 12 2 12 13
M  V30 13 1 13 14
M  V30 14 1 14 15
M  V30 15 1 15 16
M  V30 16 2 15 17
M  V30 17 1 6 18
M  V30 18 2 18 19
M  V30 19 1 18 20
M  V30 20 1 20 21
M  V30 21 1 21 22
M  V30 22 2 21 23
M  V30 23 2 21 24
M  V30 24 1 20 5
M  V30 25 1 17 12
M  V30 26 1 1 25
M  V30 27 1 1 26
M  V30 28 1 1 27
M  V30 29 1 5 28 CFG=3
M  V30 30 1 6 29 CFG=3
M  V30 31 1 7 30
M  V30 32 1 10 31
M  V30 33 1 11 32
M  V30 34 1 11 33
M  V30 35 1 13 34
M  V30 36 1 16 35
M  V30 37 1 16 36
M  V30 38 1 22 37
M  V30 END BOND
M  V30 END CTAB
M  END
