
     RDKit          3D

  0  0  0  0  0  0  0  0  0  0999 V3000
M  V30 BEGIN CTAB
M  V30 COUNTS 30 31 0 0 0
M  V30 BEGIN ATOM
M  V30 1 C -1.14706 -1.27419 1.6659 0
M  V30 2 N -0.79848 -0.134892 0.833558 0
M  V30 3 C 0.569256 0.0885311 0.551375 0
M  V30 4 C 1.11203 1.34925 0.745892 0
M  V30 5 C 2.44621 1.6321 0.486649 0
M  V30 6 C 3.23572 0.608341 0.0207748 0
M  V30 7 C 2.70146 -0.654727 -0.176107 0
M  V30 8 N 1.39535 -0.867123 0.0954411 0
M  V30 9 N 3.51988 -1.72678 -0.666552 0
M  V30 10 N 4.61729 0.798914 -0.273024 0
M  V30 11 C -1.84429 0.70518 0.334414 0
M  V30 12 C -2.64422 -0.132513 -0.665815 0
M  V30 13 C -3.78437 0.569557 -1.30053 0
M  V30 14 C -4.02973 -0.542843 -0.286852 0
M  V30 15 H -2.23381 -1.49848 1.59303 0
M  V30 16 H -0.521108 -2.1132 1.34284 0
M  V30 17 H -0.895942 -1.0857 2.73917 0
M  V30 18 H 0.453693 2.12024 1.11541 0
M  V30 19 H 2.83898 2.62954 0.649964 0
M  V30 20 H 3.50275 -1.99796 -1.67158 0
M  V30 21 H 4.12608 -2.22529 -0.000659394 0
M  V30 22 H 4.86391 1.12924 -1.22598 0
M  V30 23 H 5.34799 0.603474 0.467387 0
M  V30 24 H -2.50105 1.14797 1.09868 0
M  V30 25 H -1.41352 1.55043 -0.255504 0
M  V30 26 H -2.03125 -0.862433 -1.22595 0
M  V30 27 H -3.96409 0.302109 -2.37914 0
M  V30 28 H -4.07198 1.59092 -0.976631 0
M  V30 29 H -4.43274 -1.47047 -0.711814 0
M  V30 30 H -4.41695 -0.239182 0.729964 0
M  V30 END ATOM
M  V30 BEGIN BOND
M  V30 1 1 1 2
M  V30 2 1 2 3
M  V30 3 2 3 4
M  V30 4 1 4 5
M  V30 5 2 5 6
M  V30 6 1 6 7
M  V30 7 2 7 8
M  V30 8 1 7 9
M  V30 9 1 6 10
M  V30 10 1 2 11
M  V30 11 1 11 12
M  V30 12 1 12 13
M  V30 13 1 13 14
M  V30 14 1 8 3
M  V30 15 1 14 12
M  V30 16 1 1 15
M  V30 17 1 1 16
M  V30 18 1 1 17
M  V30 19 1 4 18
M  V30 20 1 5 19
M  V30 21 1 9 20
M  V30 22 1 9 21
M  V30 23 1 10 22
M  V30 24 1 10 23
M  V30 25 1 11 24
M  V30 26 1 11 25
M  V30 27 1 12 26
M  V30 28 1 13 27
M  V30 29 1 13 28
M  V30 30 1 14 29
M  V30 31 1 14 30
M  V30 END BOND
M  V30 END CTAB
M  END
