
     RDKit          3D

  0  0  0  0  0  0  0  0  0  0999 V3000
M  V30 BEGIN CTAB
M  V30 COUNTS 43 44 0 0 0
M  V30 BEGIN ATOM
M  V30 1 C -4.00153 2.05762 -2.3361 0
M  V30 2 O -4.61435 1.06738 -1.54351 0
M  V30 3 C -3.91314 0.412494 -0.542685 0
M  V30 4 C -2.60626 0.64368 -0.230495 0
M  V30 5 C -1.92675 -0.0225128 0.773884 0
M  V30 6 C -0.5298 0.293927 1.04068 0
M  V30 7 N 0.421775 -0.342842 0.153557 0
M  V30 8 C 0.823145 -1.67013 0.23527 0
M  V30 9 O 0.349233 -2.41764 1.12546 0
M  V30 10 C 1.79223 -2.27011 -0.683681 0
M  V30 11 S 2.65803 -1.1635 -1.77831 0
M  V30 12 C 3.86326 -0.122761 -0.973051 0
M  V30 13 N 3.6152 1.0874 -0.47827 0
M  V30 14 C 4.53254 1.82572 0.108765 0
M  V30 15 N 4.29966 3.1237 0.646015 0
M  V30 16 C 5.82392 1.34297 0.22978 0
M  V30 17 C 6.11378 0.0932944 -0.271988 0
M  V30 18 N 5.13759 -0.605215 -0.856682 0
M  V30 19 N 7.42954 -0.420362 -0.157179 0
M  V30 20 C -2.57805 -0.975713 1.51626 0
M  V30 21 C -3.91809 -1.22496 1.20876 0
M  V30 22 C -4.59336 -0.558254 0.20562 0
M  V30 23 O -5.93112 -0.821215 -0.0867309 0
M  V30 24 C -6.61741 -1.80106 0.665726 0
M  V30 25 H -3.33135 2.73331 -1.73055 0
M  V30 26 H -3.40207 1.64865 -3.16879 0
M  V30 27 H -4.76533 2.7373 -2.80313 0
M  V30 28 H -2.08956 1.40214 -0.824452 0
M  V30 29 H -0.278114 0.000862698 2.10093 0
M  V30 30 H -0.34301 1.38194 1.01315 0
M  V30 31 H 0.80762 0.244924 -0.604203 0
M  V30 32 H 2.59087 -2.84734 -0.109204 0
M  V30 33 H 1.25497 -3.07427 -1.2517 0
M  V30 34 H 4.0591 3.3077 1.6457 0
M  V30 35 H 4.3795 3.92481 -0.0184259 0
M  V30 36 H 6.59355 1.92719 0.705804 0
M  V30 37 H 7.76699 -1.18422 -0.756001 0
M  V30 38 H 8.06768 -0.0103821 0.555451 0
M  V30 39 H -2.13327 -1.54397 2.31941 0
M  V30 40 H -4.42584 -1.97799 1.79831 0
M  V30 41 H -7.71045 -1.7633 0.497471 0
M  V30 42 H -6.23655 -2.81612 0.349513 0
M  V30 43 H -6.43476 -1.62313 1.74115 0
M  V30 END ATOM
M  V30 BEGIN BOND
M  V30 1 1 1 2
M  V30 2 1 2 3
M  V30 3 2 3 4
M  V30 4 1 4 5
M  V30 5 1 5 6
M  V30 6 1 6 7
M  V30 7 1 7 8
M  V30 8 2 8 9
M  V30 9 1 8 10
M  V30 10 1 10 11
M  V30 11 1 11 12
M  V30 12 2 12 13
M  V30 13 1 13 14
M  V30 14 1 14 15
M  V30 15 2 14 16
M  V30 16 1 16 17
M  V30 17 2 17 18
M  V30 18 1 17 19
M  V30 19 2 5 20
M  V30 20 1 20 21
M  V30 21 2 21 22
M  V30 22 1 22 23
M  V30 23 1 23 24
M  V30 24 1 22 3
M  V30 25 1 18 12
M  V30 26 1 1 25
M  V30 27 1 1 26
M  V30 28 1 1 27
M  V30 29 1 4 28
M  V30 30 1 6 29
M  V30 31 1 6 30
M  V30 32 1 7 31
M  V30 33 1 10 32
M  V30 34 1 10 33
M  V30 35 1 15 34
M  V30 36 1 15 35
M  V30 37 1 16 36
M  V30 38 1 19 37
M  V30 39 1 19 38
M  V30 40 1 20 39
M  V30 41 1 21 40
M  V30 42 1 24 41
M  V30 43 1 24 42
M  V30 44 1 24 43
M  V30 END BOND
M  V30 END CTAB
M  END
