
     RDKit          3D

  0  0  0  0  0  0  0  0  0  0999 V3000
M  V30 BEGIN CTAB
M  V30 COUNTS 35 35 0 0 0
M  V30 BEGIN ATOM
M  V30 1 N 5.25181 0.678353 -0.113932 0
M  V30 2 C 4.76354 -0.615382 0.307485 0
M  V30 3 C 3.25817 -0.542365 0.63584 0
M  V30 4 C 2.52145 -0.113823 -0.574322 0
M  V30 5 N 1.10837 -0.015816 -0.40924 0
M  V30 6 C 0.344572 0.816402 0.409204 0
M  V30 7 O 0.856254 1.66418 1.16157 0
M  V30 8 C -1.14197 0.726358 0.419739 0
M  V30 9 C -1.69809 1.01157 -0.981837 0
M  V30 10 C -3.16572 1.35546 -0.789181 0
M  V30 11 C -3.75948 0.456613 0.283028 0
M  V30 12 C -2.98428 -0.851492 0.234324 0
M  V30 13 C -1.62875 -0.620134 0.873866 0
M  V30 14 N -3.72994 -1.89152 0.889408 0
M  V30 15 F 2.87469 -1.86272 0.910015 0
M  V30 16 F 3.0914 0.184586 1.76162 0
M  V30 17 H 5.53454 0.691315 -1.12064 0
M  V30 18 H 4.61284 1.43393 0.152911 0
M  V30 19 H 5.31997 -0.874892 1.24277 0
M  V30 20 H 4.86289 -1.3893 -0.471119 0
M  V30 21 H 2.79876 -0.703051 -1.47944 0
M  V30 22 H 2.88599 0.932584 -0.850942 0
M  V30 23 H 0.556844 -0.70904 -1.0273 0
M  V30 24 H -1.58239 1.48977 1.07344 0
M  V30 25 H -1.12549 1.88751 -1.35129 0
M  V30 26 H -1.5463 0.168036 -1.66393 0
M  V30 27 H -3.74575 1.27282 -1.72358 0
M  V30 28 H -3.17984 2.41714 -0.406758 0
M  V30 29 H -3.64006 0.894235 1.30051 0
M  V30 30 H -4.82937 0.271679 0.126636 0
M  V30 31 H -2.86878 -1.14549 -0.833037 0
M  V30 32 H -1.80081 -0.626387 1.97373 0
M  V30 33 H -0.932334 -1.44117 0.595838 0
M  V30 34 H -4.03161 -2.64172 0.233485 0
M  V30 35 H -3.25113 -2.30824 1.69736 0
M  V30 END ATOM
M  V30 BEGIN BOND
M  V30 1 1 1 2
M  V30 2 1 2 3
M  V30 3 1 3 4
M  V30 4 1 4 5
M  V30 5 1 5 6
M  V30 6 2 6 7
M  V30 7 1 6 8
M  V30 8 1 8 9
M  V30 9 1 9 10
M  V30 10 1 10 11
M  V30 11 1 11 12
M  V30 12 1 12 13
M  V30 13 1 12 14
M  V30 14 1 3 15
M  V30 15 1 3 16
M  V30 16 1 13 8
M  V30 17 1 1 17
M  V30 18 1 1 18
M  V30 19 1 2 19
M  V30 20 1 2 20
M  V30 21 1 4 21
M  V30 22 1 4 22
M  V30 23 1 5 23
M  V30 24 1 8 24
M  V30 25 1 9 25
M  V30 26 1 9 26
M  V30 27 1 10 27
M  V30 28 1 10 28
M  V30 29 1 11 29
M  V30 30 1 11 30
M  V30 31 1 12 31
M  V30 32 1 13 32
M  V30 33 1 13 33
M  V30 34 1 14 34
M  V30 35 1 14 35
M  V30 END BOND
M  V30 END CTAB
M  END
