
     RDKit          3D

  0  0  0  0  0  0  0  0  0  0999 V3000
M  V30 BEGIN CTAB
M  V30 COUNTS 46 46 0 0 0
M  V30 BEGIN ATOM
M  V30 1 N -6.343 -0.0695254 1.66421 0
M  V30 2 C -5.20899 0.381129 0.868964 0
M  V30 3 C -4.68131 -0.822197 0.135537 0
M  V30 4 N -3.53899 -0.491849 -0.696819 0
M  V30 5 C -2.30363 -1.12248 -0.432994 0
M  V30 6 O -2.25953 -1.9658 0.520811 0
M  V30 7 C -1.06586 -0.850972 -1.20944 0
M  V30 8 S -0.830474 0.942682 -1.26525 0
M  V30 9 C -0.498286 1.51561 0.423447 0
M  V30 10 C 0.833989 0.935457 0.841065 0
M  V30 11 O 1.79465 1.41987 -0.0810004 0
M  V30 12 C 3.11968 1.05384 0.0463558 0
M  V30 13 C 3.50418 0.222828 1.06475 0
M  V30 14 C 4.83492 -0.170644 1.22747 0
M  V30 15 C 5.76111 0.303409 0.327511 0
M  V30 16 C 5.38567 1.13781 -0.697866 0
M  V30 17 C 4.05384 1.52159 -0.847047 0
M  V30 18 S 7.43661 -0.185909 0.524311 0
M  V30 19 O 8.27945 0.94798 0.0156726 0
M  V30 20 O 7.67326 -0.435621 1.98753 0
M  V30 21 N 7.72867 -1.62784 -0.354672 0
M  V30 22 C -3.66529 0.46632 -1.79419 0
M  V30 23 C -5.73934 -1.42545 -0.754452 0
M  V30 24 H -6.23296 -1.07976 1.91071 0
M  V30 25 H -7.19403 -0.035214 1.0332 0
M  V30 26 H -4.4163 0.809059 1.49705 0
M  V30 27 H -5.56363 1.17102 0.198032 0
M  V30 28 H -4.36405 -1.55793 0.877895 0
M  V30 29 H -0.18855 -1.28934 -0.662897 0
M  V30 30 H -1.1185 -1.28318 -2.233 0
M  V30 31 H -1.31913 1.11828 1.05828 0
M  V30 32 H -0.444812 2.63279 0.456451 0
M  V30 33 H 1.09957 1.22028 1.88327 0
M  V30 34 H 0.802514 -0.1673 0.711169 0
M  V30 35 H 2.76904 -0.131414 1.7485 0
M  V30 36 H 5.14504 -0.828271 2.03101 0
M  V30 37 H 6.09929 1.50856 -1.39819 0
M  V30 38 H 3.77157 2.17821 -1.6585 0
M  V30 39 H 8.74084 -1.84814 -0.357105 0
M  V30 40 H 7.38602 -1.52804 -1.32958 0
M  V30 41 H -3.45336 1.4999 -1.48016 0
M  V30 42 H -3.02007 0.220584 -2.65726 0
M  V30 43 H -4.70497 0.438361 -2.18991 0
M  V30 44 H -6.52907 -1.93778 -0.151089 0
M  V30 45 H -5.27613 -2.17042 -1.43577 0
M  V30 46 H -6.25965 -0.620525 -1.3187 0
M  V30 END ATOM
M  V30 BEGIN BOND
M  V30 1 1 1 2
M  V30 2 1 2 3
M  V30 3 1 3 4
M  V30 4 1 4 5
M  V30 5 2 5 6
M  V30 6 1 5 7
M  V30 7 1 7 8
M  V30 8 1 8 9
M  V30 9 1 9 10
M  V30 10 1 10 11
M  V30 11 1 11 12
M  V30 12 2 12 13
M  V30 13 1 13 14
M  V30 14 2 14 15
M  V30 15 1 15 16
M  V30 16 2 16 17
M  V30 17 1 15 18
M  V30 18 2 18 19
M  V30 19 2 18 20
M  V30 20 1 18 21
M  V30 21 1 4 22
M  V30 22 1 3 23
M  V30 23 1 17 12
M  V30 24 1 1 24
M  V30 25 1 1 25
M  V30 26 1 2 26
M  V30 27 1 2 27
M  V30 28 1 3 28
M  V30 29 1 7 29
M  V30 30 1 7 30
M  V30 31 1 9 31
M  V30 32 1 9 32
M  V30 33 1 10 33
M  V30 34 1 10 34
M  V30 35 1 13 35
M  V30 36 1 14 36
M  V30 37 1 16 37
M  V30 38 1 17 38
M  V30 39 1 21 39
M  V30 40 1 21 40
M  V30 41 1 22 41
M  V30 42 1 22 42
M  V30 43 1 22 43
M  V30 44 1 23 44
M  V30 45 1 23 45
M  V30 46 1 23 46
M  V30 END BOND
M  V30 END CTAB
M  END
