
     RDKit          3D

  0  0  0  0  0  0  0  0  0  0999 V3000
M  V30 BEGIN CTAB
M  V30 COUNTS 37 38 0 0 0
M  V30 BEGIN ATOM
M  V30 1 N 3.68003 -1.11782 1.09669 0
M  V30 2 C 4.21574 -0.797328 -0.178446 0
M  V30 3 S 5.58193 -1.56238 -0.653391 0
M  V30 4 N 3.56614 0.159187 -0.991004 0
M  V30 5 C 2.36611 0.793972 -0.518796 0
M  V30 6 C 1.27858 -0.219078 -0.498477 0
M  V30 7 O 1.49117 -1.41298 -0.874885 0
M  V30 8 N -0.0197189 0.16914 -0.0480724 0
M  V30 9 C -1.03626 -0.809682 -0.0405466 0
M  V30 10 C -0.770718 -2.00856 0.580576 0
M  V30 11 C -1.70907 -3.01521 0.62856 0
M  V30 12 C -2.96052 -2.83593 0.0420899 0
M  V30 13 C -3.22726 -1.63579 -0.579856 0
M  V30 14 C -2.27737 -0.639049 -0.619212 0
M  V30 15 N -3.90984 -3.89004 0.106031 0
M  V30 16 C -0.2228 1.51026 0.366696 0
M  V30 17 C -0.471772 2.48745 -0.594216 0
M  V30 18 C -0.677309 3.80795 -0.246603 0
M  V30 19 C -0.634063 4.16591 1.08583 0
M  V30 20 C -0.391482 3.23718 2.07103 0
M  V30 21 C -0.191142 1.92417 1.67573 0
M  V30 22 H 3.62249 -0.370129 1.81843 0
M  V30 23 H 3.33824 -2.07928 1.34111 0
M  V30 24 H 3.92254 0.432285 -1.93475 0
M  V30 25 H 2.48473 1.19527 0.512421 0
M  V30 26 H 2.0693 1.66729 -1.13855 0
M  V30 27 H 0.186741 -2.21842 1.05928 0
M  V30 28 H -1.51821 -3.98034 1.11963 0
M  V30 29 H -4.2098 -1.48973 -1.04132 0
M  V30 30 H -2.51105 0.304507 -1.11904 0
M  V30 31 H -3.62616 -4.86715 -0.000544898 0
M  V30 32 H -4.90459 -3.62667 0.26471 0
M  V30 33 H -0.510257 2.22797 -1.6558 0
M  V30 34 H -0.87122 4.5642 -1.00277 0
M  V30 35 H -0.795514 5.21323 1.36734 0
M  V30 36 H -0.357419 3.52406 3.11729 0
M  V30 37 H -0.000181982 1.19153 2.44662 0
M  V30 END ATOM
M  V30 BEGIN BOND
M  V30 1 1 1 2
M  V30 2 2 2 3
M  V30 3 1 2 4
M  V30 4 1 4 5
M  V30 5 1 5 6
M  V30 6 2 6 7
M  V30 7 1 6 8
M  V30 8 1 8 9
M  V30 9 2 9 10
M  V30 10 1 10 11
M  V30 11 2 11 12
M  V30 12 1 12 13
M  V30 13 2 13 14
M  V30 14 1 12 15
M  V30 15 1 8 16
M  V30 16 2 16 17
M  V30 17 1 17 18
M  V30 18 2 18 19
M  V30 19 1 19 20
M  V30 20 2 20 21
M  V30 21 1 14 9
M  V30 22 1 21 16
M  V30 23 1 1 22
M  V30 24 1 1 23
M  V30 25 1 4 24
M  V30 26 1 5 25
M  V30 27 1 5 26
M  V30 28 1 10 27
M  V30 29 1 11 28
M  V30 30 1 13 29
M  V30 31 1 14 30
M  V30 32 1 15 31
M  V30 33 1 15 32
M  V30 34 1 17 33
M  V30 35 1 18 34
M  V30 36 1 19 35
M  V30 37 1 20 36
M  V30 38 1 21 37
M  V30 END BOND
M  V30 END CTAB
M  END
