
     RDKit          3D

  0  0  0  0  0  0  0  0  0  0999 V3000
M  V30 BEGIN CTAB
M  V30 COUNTS 43 44 0 0 0
M  V30 BEGIN ATOM
M  V30 1 C -5.87558 -2.07993 1.01105 0
M  V30 2 O -4.63794 -1.50976 0.627275 0
M  V30 3 C -4.63843 -0.195326 0.181545 0
M  V30 4 C -5.80074 0.566076 0.10212 0
M  V30 5 C -5.78203 1.87426 -0.344446 0
M  V30 6 N -6.9841 2.65357 -0.423854 0
M  V30 7 C -4.56391 2.40457 -0.711698 0
M  V30 8 C -3.41643 1.64252 -0.629771 0
M  V30 9 C -3.42274 0.338618 -0.186572 0
M  V30 10 C -2.19891 -0.470009 -0.10062 0
M  V30 11 O -2.20238 -1.64431 0.298158 0
M  V30 12 O -1.02582 0.128647 -0.484118 0
M  V30 13 C 0.229645 -0.491395 -0.462036 0
M  V30 14 C 0.691362 -0.913097 0.903042 0
M  V30 15 O 1.92346 -1.51836 0.926398 0
M  V30 16 C 3.17814 -1.09132 0.625544 0
M  V30 17 C 4.25495 -2.00054 0.731877 0
M  V30 18 C 5.53209 -1.60422 0.439449 0
M  V30 19 C 5.8383 -0.323205 0.0327464 0
M  V30 20 C 4.81132 0.569056 -0.075346 0
M  V30 21 C 3.50827 0.173063 0.221053 0
M  V30 22 S 7.48049 0.146128 -0.332218 0
M  V30 23 O 7.5043 1.25359 -1.32189 0
M  V30 24 O 8.25733 -1.01498 -0.882742 0
M  V30 25 N 8.19013 0.732665 1.13595 0
M  V30 26 Cl -4.53332 4.05931 -1.27762 0
M  V30 27 H -5.77867 -3.19866 1.11907 0
M  V30 28 H -6.18442 -1.71429 2.01191 0
M  V30 29 H -6.65547 -1.92405 0.238875 0
M  V30 30 H -6.73218 0.117645 0.397505 0
M  V30 31 H -7.74966 2.4929 0.262504 0
M  V30 32 H -7.12873 3.38598 -1.14978 0
M  V30 33 H -2.47442 2.06357 -0.917487 0
M  V30 34 H 0.205382 -1.40971 -1.14273 0
M  V30 35 H 0.931553 0.19551 -0.95986 0
M  V30 36 H -0.071247 -1.5816 1.39655 0
M  V30 37 H 0.750245 -0.0169524 1.59526 0
M  V30 38 H 4.01254 -3.00199 1.05026 0
M  V30 39 H 6.34848 -2.30939 0.524551 0
M  V30 40 H 5.04923 1.57556 -0.394506 0
M  V30 41 H 2.76484 0.952755 0.12565 0
M  V30 42 H 8.95596 1.40488 0.933365 0
M  V30 43 H 7.43911 1.28222 1.62983 0
M  V30 END ATOM
M  V30 BEGIN BOND
M  V30 1 1 1 2
M  V30 2 1 2 3
M  V30 3 2 3 4
M  V30 4 1 4 5
M  V30 5 1 5 6
M  V30 6 2 5 7
M  V30 7 1 7 8
M  V30 8 2 8 9
M  V30 9 1 9 10
M  V30 10 2 10 11
M  V30 11 1 10 12
M  V30 12 1 12 13
M  V30 13 1 13 14
M  V30 14 1 14 15
M  V30 15 1 15 16
M  V30 16 2 16 17
M  V30 17 1 17 18
M  V30 18 2 18 19
M  V30 19 1 19 20
M  V30 20 2 20 21
M  V30 21 1 19 22
M  V30 22 2 22 23
M  V30 23 2 22 24
M  V30 24 1 22 25
M  V30 25 1 7 26
M  V30 26 1 9 3
M  V30 27 1 21 16
M  V30 28 1 1 27
M  V30 29 1 1 28
M  V30 30 1 1 29
M  V30 31 1 4 30
M  V30 32 1 6 31
M  V30 33 1 6 32
M  V30 34 1 8 33
M  V30 35 1 13 34
M  V30 36 1 13 35
M  V30 37 1 14 36
M  V30 38 1 14 37
M  V30 39 1 17 38
M  V30 40 1 18 39
M  V30 41 1 20 40
M  V30 42 1 21 41
M  V30 43 1 25 42
M  V30 44 1 25 43
M  V30 END BOND
M  V30 END CTAB
M  END
