
     RDKit          3D

  0  0  0  0  0  0  0  0  0  0999 V3000
M  V30 BEGIN CTAB
M  V30 COUNTS 62 67 0 0 0
M  V30 BEGIN ATOM
M  V30 1 N -6.18348 -1.79633 0.228539 0
M  V30 2 C -5.02552 -1.79467 0.314379 0
M  V30 3 C -3.58356 -1.77085 0.448118 0
M  V30 4 C -2.99842 -2.34894 1.4043 0
M  V30 5 N -3.72402 -3.05992 2.41776 0
M  V30 6 O -1.63364 -2.32527 1.52089 0
M  V30 7 C -0.853525 -1.6504 0.585559 0
M  V30 8 C -1.44493 -0.969033 -0.485207 0
M  V30 9 C -2.87197 -0.915121 -0.610198 0
M  V30 10 C -3.6647 0.320806 -0.419078 0
M  V30 11 C -4.50904 0.787674 -1.38732 0
M  V30 12 C -5.44999 1.74665 -1.20402 0
M  V30 13 C -5.58169 2.31352 0.0616625 0
M  V30 14 C -4.76321 1.89317 1.05517 0
M  V30 15 C -3.80052 0.897797 0.825743 0
M  V30 16 C -6.71082 3.29233 0.306191 0
M  V30 17 F -7.02479 3.891 -0.880612 0
M  V30 18 F -6.40093 4.12185 1.33443 0
M  V30 19 F -7.83394 2.48597 0.648802 0
M  V30 20 C -0.529749 -0.383138 -1.33056 0
M  V30 21 C -1.00545 0.200235 -2.53017 0
M  V30 22 C -0.194107 0.706422 -3.50431 0
M  V30 23 C 1.16559 0.657566 -3.33378 0
M  V30 24 C 1.67775 0.0881651 -2.16731 0
M  V30 25 C 0.846041 -0.417306 -1.18593 0
M  V30 26 C 1.41905 -1.09188 -0.0776355 0
M  V30 27 C 0.512455 -1.71464 0.7836 0
M  V30 28 O 0.965637 -2.47339 1.88823 0
M  V30 29 C 2.31936 -2.56959 2.12953 0
M  V30 30 C 3.20047 -1.93989 1.42064 0
M  V30 31 C 2.78164 -1.02752 0.335523 0
M  V30 32 C 3.81226 -0.0715404 -0.0109008 0
M  V30 33 C 5.02142 -0.484887 -0.477312 0
M  V30 34 C 6.04669 0.433156 -0.725119 0
M  V30 35 C 5.90727 1.78156 -0.522266 0
M  V30 36 C 4.66869 2.20708 -0.0504092 0
M  V30 37 C 3.64493 1.28201 0.199564 0
M  V30 38 C 6.98383 2.78843 -0.713638 0
M  V30 39 F 7.91237 2.60734 0.308593 0
M  V30 40 F 6.46132 4.06581 -0.527824 0
M  V30 41 F 7.62973 2.65695 -1.90347 0
M  V30 42 C 4.57362 -2.19128 1.77384 0
M  V30 43 N 5.69454 -2.37155 2.08376 0
M  V30 44 N 2.73661 -3.42693 3.24134 0
M  V30 45 H -3.8376 -4.07506 2.3048 0
M  V30 46 H -4.12641 -2.57851 3.23068 0
M  V30 47 H -3.25972 -1.41738 -1.5639 0
M  V30 48 H -4.42207 0.367449 -2.38878 0
M  V30 49 H -6.11036 2.11237 -1.9823 0
M  V30 50 H -4.8572 2.32006 2.02466 0
M  V30 51 H -3.17324 0.583871 1.6269 0
M  V30 52 H -2.05054 0.208576 -2.67492 0
M  V30 53 H -0.645189 1.13428 -4.40443 0
M  V30 54 H 1.8123 1.04121 -4.09811 0
M  V30 55 H 2.72197 -0.0355411 -2.09637 0
M  V30 56 H 2.40957 -0.192116 1.30279 0
M  V30 57 H 5.27952 -1.53077 -0.717854 0
M  V30 58 H 7.01866 0.0641243 -1.09537 0
M  V30 59 H 4.51892 3.25081 0.135902 0
M  V30 60 H 2.71972 1.73947 0.557587 0
M  V30 61 H 2.32544 -4.35268 3.413 0
M  V30 62 H 3.48295 -3.07161 3.85432 0
M  V30 END ATOM
M  V30 BEGIN BOND
M  V30 1 3 1 2
M  V30 2 1 2 3
M  V30 3 2 3 4
M  V30 4 1 4 5
M  V30 5 1 4 6
M  V30 6 1 6 7
M  V30 7 2 7 8
M  V30 8 1 8 9
M  V30 9 1 9 10
M  V30 10 2 10 11
M  V30 11 1 11 12
M  V30 12 2 12 13
M  V30 13 1 13 14
M  V30 14 2 14 15
M  V30 15 1 13 16
M  V30 16 1 16 17
M  V30 17 1 16 18
M  V30 18 1 16 19
M  V30 19 1 8 20
M  V30 20 2 20 21
M  V30 21 1 21 22
M  V30 22 2 22 23
M  V30 23 1 23 24
M  V30 24 2 24 25
M  V30 25 1 25 26
M  V30 26 2 26 27
M  V30 27 1 27 28
M  V30 28 1 28 29
M  V30 29 2 29 30
M  V30 30 1 30 31
M  V30 31 1 31 32
M  V30 32 2 32 33
M  V30 33 1 33 34
M  V30 34 2 34 35
M  V30 35 1 35 36
M  V30 36 2 36 37
M  V30 37 1 35 38
M  V30 38 1 38 39
M  V30 39 1 38 40
M  V30 40 1 38 41
M  V30 41 1 30 42
M  V30 42 3 42 43
M  V30 43 1 29 44
M  V30 44 1 9 3
M  V30 45 1 15 10
M  V30 46 1 25 20
M  V30 47 1 31 26
M  V30 48 1 37 32
M  V30 49 1 27 7
M  V30 50 1 5 45
M  V30 51 1 5 46
M  V30 52 1 9 47
M  V30 53 1 11 48
M  V30 54 1 12 49
M  V30 55 1 14 50
M  V30 56 1 15 51
M  V30 57 1 21 52
M  V30 58 1 22 53
M  V30 59 1 23 54
M  V30 60 1 24 55
M  V30 61 1 31 56
M  V30 62 1 33 57
M  V30 63 1 34 58
M  V30 64 1 36 59
M  V30 65 1 37 60
M  V30 66 1 44 61
M  V30 67 1 44 62
M  V30 END BOND
M  V30 END CTAB
M  END
