
     RDKit          3D

  0  0  0  0  0  0  0  0  0  0999 V3000
M  V30 BEGIN CTAB
M  V30 COUNTS 48 49 0 0 0
M  V30 BEGIN ATOM
M  V30 1 C -5.60079 0.915286 0.430867 0
M  V30 2 O -4.232 0.591756 0.346947 0
M  V30 3 C -3.78063 -0.728775 0.25663 0
M  V30 4 C -4.72489 -1.75705 0.254177 0
M  V30 5 C -4.31636 -3.0663 0.172113 0
M  V30 6 C -2.9748 -3.33046 0.0937638 0
M  V30 7 C -2.048 -2.30417 0.0962589 0
M  V30 8 C -2.43004 -0.998628 0.176371 0
M  V30 9 C -1.42479 0.133909 0.134554 0
M  V30 10 C -0.0716208 -0.497531 0.109408 0
M  V30 11 C 1.13251 0.347235 0.0765566 0
M  V30 12 N 2.28827 -0.579519 0.140468 0
M  V30 13 C 3.62104 -0.10089 0.129498 0
M  V30 14 C 4.71008 -0.938464 0.187867 0
M  V30 15 C 5.96452 -0.407445 0.1731 0
M  V30 16 N 7.13351 -1.20489 0.230184 0
M  V30 17 N 6.09103 0.93397 0.101014 0
M  V30 18 C 5.04091 1.74051 0.0447944 0
M  V30 19 N 3.8092 1.2288 0.0587608 0
M  V30 20 N 5.23234 3.15065 -0.0303312 0
M  V30 21 C -1.69175 0.79694 -1.20416 0
M  V30 22 C -0.902444 2.00145 -1.52265 0
M  V30 23 C -1.70657 1.0052 1.30779 0
M  V30 24 H -5.69521 1.99829 0.132311 0
M  V30 25 H -6.22448 0.365428 -0.307804 0
M  V30 26 H -6.00199 0.864681 1.46159 0
M  V30 27 H -5.77458 -1.52397 0.316663 0
M  V30 28 H -5.01515 -3.89967 0.166935 0
M  V30 29 H -2.59901 -4.34721 0.0276587 0
M  V30 30 H -1.01265 -2.56509 0.0290561 0
M  V30 31 H -0.0357755 -1.08602 -0.861839 0
M  V30 32 H 0.00513761 -1.2135 0.991449 0
M  V30 33 H 1.32253 0.854662 -0.920963 0
M  V30 34 H 1.2407 1.10724 0.840023 0
M  V30 35 H 2.12929 -1.59259 0.194084 0
M  V30 36 H 4.55944 -2.01982 0.245418 0
M  V30 37 H 8.07198 -0.787478 0.28329 0
M  V30 38 H 7.06418 -2.24624 0.219308 0
M  V30 39 H 4.7702 3.7171 -0.796702 0
M  V30 40 H 5.83001 3.6053 0.677447 0
M  V30 41 H -1.43264 0.0309452 -2.02133 0
M  V30 42 H -2.76401 0.976194 -1.40655 0
M  V30 43 H -0.195826 1.85366 -2.36266 0
M  V30 44 H -0.333869 2.46194 -0.690505 0
M  V30 45 H -1.62383 2.77885 -1.92373 0
M  V30 46 H -2.33635 0.476875 2.076 0
M  V30 47 H -0.799769 1.33162 1.855 0
M  V30 48 H -2.267 1.92719 1.05947 0
M  V30 END ATOM
M  V30 BEGIN BOND
M  V30 1 1 1 2
M  V30 2 1 2 3
M  V30 3 2 3 4
M  V30 4 1 4 5
M  V30 5 2 5 6
M  V30 6 1 6 7
M  V30 7 2 7 8
M  V30 8 1 8 9
M  V30 9 1 9 10
M  V30 10 1 10 11
M  V30 11 1 11 12
M  V30 12 1 12 13
M  V30 13 2 13 14
M  V30 14 1 14 15
M  V30 15 1 15 16
M  V30 16 2 15 17
M  V30 17 1 17 18
M  V30 18 2 18 19
M  V30 19 1 18 20
M  V30 20 1 9 21
M  V30 21 1 21 22
M  V30 22 1 9 23
M  V30 23 1 8 3
M  V30 24 1 19 13
M  V30 25 1 1 24
M  V30 26 1 1 25
M  V30 27 1 1 26
M  V30 28 1 4 27
M  V30 29 1 5 28
M  V30 30 1 6 29
M  V30 31 1 7 30
M  V30 32 1 10 31
M  V30 33 1 10 32
M  V30 34 1 11 33
M  V30 35 1 11 34
M  V30 36 1 12 35
M  V30 37 1 14 36
M  V30 38 1 16 37
M  V30 39 1 16 38
M  V30 40 1 20 39
M  V30 41 1 20 40
M  V30 42 1 21 41
M  V30 43 1 21 42
M  V30 44 1 22 43
M  V30 45 1 22 44
M  V30 46 1 22 45
M  V30 47 1 23 46
M  V30 48 1 23 47
M  V30 49 1 23 48
M  V30 END BOND
M  V30 END CTAB
M  END
