
     RDKit          3D

  0  0  0  0  0  0  0  0  0  0999 V3000
M  V30 BEGIN CTAB
M  V30 COUNTS 47 47 0 0 0
M  V30 BEGIN ATOM
M  V30 1 C -4.24654 -1.43861 -0.913937 0
M  V30 2 C -4.18806 0.0282989 -0.936236 0
M  V30 3 C -3.00174 0.753549 -0.494457 0
M  V30 4 C -2.45783 0.67467 0.849053 0
M  V30 5 C -1.8756 -0.520578 1.47034 0
M  V30 6 N -0.624724 -1.00167 0.864332 0
M  V30 7 C 0.555911 -0.388476 1.3408 0
M  V30 8 O 0.447921 0.471224 2.27222 0
M  V30 9 C 1.9279 -0.643413 0.862532 0 CFG=2
M  V30 10 C 2.57386 0.705876 0.650441 0
M  V30 11 C 3.9497 0.672625 0.175289 0
M  V30 12 C 5.01267 0.626155 1.07174 0
M  V30 13 C 6.29189 0.599846 0.585036 0
M  V30 14 C 6.53883 0.618854 -0.782225 0
M  V30 15 C 5.49619 0.664871 -1.68204 0
M  V30 16 C 4.20849 0.691136 -1.17778 0
M  V30 17 N 2.03739 -1.39516 -0.351179 0
M  V30 18 C -0.576857 -2.05516 -0.0792072 0
M  V30 19 N -3.09866 2.18412 -0.934695 0
M  V30 20 C -5.46954 0.507724 -0.229675 0
M  V30 21 H -4.29082 -1.83524 0.0960713 0
M  V30 22 H -3.35589 -1.83849 -1.43436 0
M  V30 23 H -5.1304 -1.84629 -1.4502 0
M  V30 24 H -4.39942 0.331347 -2.02286 0
M  V30 25 H -2.15023 0.40134 -1.19615 0
M  V30 26 H -1.67994 1.53648 0.964825 0
M  V30 27 H -3.22122 1.05958 1.63455 0
M  V30 28 H -1.64558 -0.228918 2.55652 0
M  V30 29 H -2.58848 -1.34785 1.57201 0
M  V30 30 H 2.42701 -1.20726 1.68851 0
M  V30 31 H 1.94958 1.22822 -0.122878 0
M  V30 32 H 2.42719 1.30385 1.58373 0
M  V30 33 H 4.74716 0.613812 2.11398 0
M  V30 34 H 7.10077 0.563817 1.30285 0
M  V30 35 H 7.54135 0.598014 -1.15417 0
M  V30 36 H 5.68032 0.679781 -2.74113 0
M  V30 37 H 3.42234 0.729808 -1.93295 0
M  V30 38 H 3.00562 -1.77155 -0.430081 0
M  V30 39 H 1.82108 -0.88142 -1.21301 0
M  V30 40 H -1.55516 -2.63843 -0.124957 0
M  V30 41 H 0.144413 -2.83552 0.284724 0
M  V30 42 H -0.386949 -1.78715 -1.12749 0
M  V30 43 H -3.82867 2.67263 -0.408433 0
M  V30 44 H -2.14089 2.58823 -0.711475 0
M  V30 45 H -5.54986 1.59408 -0.220054 0
M  V30 46 H -6.30395 0.0977132 -0.836698 0
M  V30 47 H -5.54056 0.0283959 0.768777 0
M  V30 END ATOM
M  V30 BEGIN BOND
M  V30 1 1 1 2
M  V30 2 1 2 3
M  V30 3 1 3 4
M  V30 4 1 4 5
M  V30 5 1 5 6
M  V30 6 1 6 7
M  V30 7 2 7 8
M  V30 8 1 7 9
M  V30 9 1 9 10
M  V30 10 1 10 11
M  V30 11 2 11 12
M  V30 12 1 12 13
M  V30 13 2 13 14
M  V30 14 1 14 15
M  V30 15 2 15 16
M  V30 16 1 9 17
M  V30 17 1 6 18
M  V30 18 1 3 19
M  V30 19 1 2 20
M  V30 20 1 16 11
M  V30 21 1 1 21
M  V30 22 1 1 22
M  V30 23 1 1 23
M  V30 24 1 2 24
M  V30 25 1 3 25
M  V30 26 1 4 26
M  V30 27 1 4 27
M  V30 28 1 5 28
M  V30 29 1 5 29
M  V30 30 1 9 30 CFG=1
M  V30 31 1 10 31
M  V30 32 1 10 32
M  V30 33 1 12 33
M  V30 34 1 13 34
M  V30 35 1 14 35
M  V30 36 1 15 36
M  V30 37 1 16 37
M  V30 38 1 17 38
M  V30 39 1 17 39
M  V30 40 1 18 40
M  V30 41 1 18 41
M  V30 42 1 18 42
M  V30 43 1 19 43
M  V30 44 1 19 44
M  V30 45 1 20 45
M  V30 46 1 20 46
M  V30 47 1 20 47
M  V30 END BOND
M  V30 END CTAB
M  END
