
     RDKit          3D

  0  0  0  0  0  0  0  0  0  0999 V3000
M  V30 BEGIN CTAB
M  V30 COUNTS 40 41 0 0 0
M  V30 BEGIN ATOM
M  V30 1 C -4.93288 0.794382 0.839961 0
M  V30 2 O -3.85916 1.6268 0.413135 0
M  V30 3 C -2.5976 1.07161 0.21489 0
M  V30 4 C -2.37083 -0.271899 0.424558 0
M  V30 5 C -1.14016 -0.860841 0.240611 0
M  V30 6 C -0.908616 -2.31729 0.471762 0
M  V30 7 C -2.19466 -3.02953 0.805063 0
M  V30 8 C 0.101358 -2.5631 1.57013 0
M  V30 9 C -0.100886 -0.0317972 -0.176148 0
M  V30 10 O 1.11045 -0.608335 -0.355909 0
M  V30 11 C 2.31317 -0.113955 -0.699044 0
M  V30 12 C 2.90245 -0.526095 -1.88205 0
M  V30 13 N 4.10515 -0.0327478 -2.22415 0
M  V30 14 C 4.78159 0.850746 -1.475 0
M  V30 15 N 6.0476 1.33513 -1.88993 0
M  V30 16 N 4.2068 1.24996 -0.324372 0
M  V30 17 C 2.9945 0.779118 0.0621569 0
M  V30 18 N 2.49642 1.24695 1.29282 0
M  V30 19 C -0.328208 1.30674 -0.38516 0
M  V30 20 C -1.5781 1.90058 -0.197399 0
M  V30 21 N -1.78384 3.28666 -0.423288 0 CHG=1
M  V30 22 O -3.00093 3.81013 -0.783904 0 CHG=-1
M  V30 23 O -0.828775 4.07369 -0.292607 0
M  V30 24 H -5.12727 0.0823552 -0.00212083 0
M  V30 25 H -4.65589 0.198084 1.7503 0
M  V30 26 H -5.81677 1.39075 1.11954 0
M  V30 27 H -3.21232 -0.89463 0.753857 0
M  V30 28 H -0.50842 -2.80357 -0.459494 0
M  V30 29 H -2.59443 -2.75574 1.80054 0
M  V30 30 H -2.98045 -2.77982 0.0462011 0
M  V30 31 H -2.08359 -4.13918 0.719296 0
M  V30 32 H -0.488396 -2.81118 2.49923 0
M  V30 33 H 0.772619 -3.40637 1.30953 0
M  V30 34 H 0.698985 -1.68163 1.82199 0
M  V30 35 H 2.4258 -1.22472 -2.52792 0
M  V30 36 H 6.68972 0.68015 -2.36815 0
M  V30 37 H 6.38196 2.31428 -1.74659 0
M  V30 38 H 2.37986 0.610906 2.09917 0
M  V30 39 H 2.2422 2.24398 1.39444 0
M  V30 40 H 0.44154 1.99943 -0.722575 0
M  V30 END ATOM
M  V30 BEGIN BOND
M  V30 1 1 1 2
M  V30 2 1 2 3
M  V30 3 2 3 4
M  V30 4 1 4 5
M  V30 5 1 5 6
M  V30 6 1 6 7
M  V30 7 1 6 8
M  V30 8 2 5 9
M  V30 9 1 9 10
M  V30 10 1 10 11
M  V30 11 2 11 12
M  V30 12 1 12 13
M  V30 13 2 13 14
M  V30 14 1 14 15
M  V30 15 1 14 16
M  V30 16 2 16 17
M  V30 17 1 17 18
M  V30 18 1 9 19
M  V30 19 2 19 20
M  V30 20 1 20 21
M  V30 21 1 21 22
M  V30 22 2 21 23
M  V30 23 1 20 3
M  V30 24 1 17 11
M  V30 25 1 1 24
M  V30 26 1 1 25
M  V30 27 1 1 26
M  V30 28 1 4 27
M  V30 29 1 6 28
M  V30 30 1 7 29
M  V30 31 1 7 30
M  V30 32 1 7 31
M  V30 33 1 8 32
M  V30 34 1 8 33
M  V30 35 1 8 34
M  V30 36 1 12 35
M  V30 37 1 15 36
M  V30 38 1 15 37
M  V30 39 1 18 38
M  V30 40 1 18 39
M  V30 41 1 19 40
M  V30 END BOND
M  V30 END CTAB
M  END
