
     RDKit          3D

  0  0  0  0  0  0  0  0  0  0999 V3000
M  V30 BEGIN CTAB
M  V30 COUNTS 22 23 0 0 0
M  V30 BEGIN ATOM
M  V30 1 N -2.71177 0.107554 1.37208 0
M  V30 2 C -1.98574 -0.754834 0.456617 0
M  V30 3 C -1.6688 -0.0104062 -0.786682 0 CFG=2
M  V30 4 C -0.904023 -0.776165 -1.86887 0
M  V30 5 C -0.306515 0.415942 -1.18407 0 CFG=2
M  V30 6 C 0.876569 0.251018 -0.319537 0
M  V30 7 N 1.30487 -0.898263 0.211806 0
M  V30 8 N 2.40516 -0.625945 0.941419 0
M  V30 9 C 2.67905 0.6718 0.880277 0
M  V30 10 N 1.71351 1.20277 0.0882236 0
M  V30 11 N 3.76297 1.31922 1.52405 0
M  V30 12 H -2.34721 1.02772 1.48993 0
M  V30 13 H -3.71194 0.0849882 1.13977 0
M  V30 14 H -2.69135 -1.61108 0.247544 0
M  V30 15 H -1.14036 -1.17841 1.00594 0
M  V30 16 H -2.53679 0.603782 -1.17892 0
M  V30 17 H -0.460932 -1.76513 -1.57787 0
M  V30 18 H -1.29544 -0.695133 -2.90574 0
M  V30 19 H -0.314112 1.35505 -1.82417 0
M  V30 20 H 0.927594 -1.87074 0.127451 0
M  V30 21 H 4.76814 1.19298 1.20568 0
M  V30 22 H 3.63712 1.95327 2.34275 0
M  V30 END ATOM
M  V30 BEGIN BOND
M  V30 1 1 1 2
M  V30 2 1 2 3
M  V30 3 1 3 4
M  V30 4 1 4 5
M  V30 5 1 5 6
M  V30 6 1 6 7
M  V30 7 1 7 8
M  V30 8 2 8 9
M  V30 9 1 9 10
M  V30 10 1 9 11
M  V30 11 1 5 3
M  V30 12 2 10 6
M  V30 13 1 1 12
M  V30 14 1 1 13
M  V30 15 1 2 14
M  V30 16 1 2 15
M  V30 17 1 3 16 CFG=3
M  V30 18 1 4 17
M  V30 19 1 4 18
M  V30 20 1 5 19 CFG=3
M  V30 21 1 7 20
M  V30 22 1 11 21
M  V30 23 1 11 22
M  V30 END BOND
M  V30 END CTAB
M  END
