
     RDKit          3D

  0  0  0  0  0  0  0  0  0  0999 V3000
M  V30 BEGIN CTAB
M  V30 COUNTS 29 31 0 0 0
M  V30 BEGIN ATOM
M  V30 1 N -5.95544 1.81886 0.668982 0
M  V30 2 C -4.9663 0.901858 0.259744 0
M  V30 3 N -5.34942 -0.317223 -0.345564 0
M  V30 4 N -3.72534 1.18234 0.440561 0
M  V30 5 C -2.70915 0.256658 0.0280909 0
M  V30 6 N -1.40854 0.425449 0.156826 0
M  V30 7 C -0.593693 -0.492139 -0.258936 0
M  V30 8 C -1.14614 -1.61719 -0.824598 0
M  V30 9 S -2.81736 -1.27256 -0.717627 0
M  V30 10 C 0.882631 -0.346404 -0.135065 0
M  V30 11 C 1.84099 -1.24642 -0.537068 0
M  V30 12 C 3.09672 -0.728463 -0.240553 0
M  V30 13 C 2.87614 0.490849 0.342923 0
M  V30 14 N 1.56277 0.688695 0.391535 0
M  V30 15 C 3.9758 1.23825 0.745097 0
M  V30 16 C 5.25413 0.736272 0.547704 0
M  V30 17 C 5.43374 -0.493902 -0.0425122 0
M  V30 18 C 4.35363 -1.2519 -0.449128 0
M  V30 19 H -5.92258 2.81462 0.298382 0
M  V30 20 H -6.696 1.49982 1.3252 0
M  V30 21 H -5.67475 -1.13736 0.228434 0
M  V30 22 H -5.30641 -0.3993 -1.3851 0
M  V30 23 H -0.615633 -2.49728 -1.23242 0
M  V30 24 H 1.62973 -2.2043 -1.00931 0
M  V30 25 H 1.1036 1.54278 0.789247 0
M  V30 26 H 3.84389 2.20086 1.20725 0
M  V30 27 H 6.12953 1.29028 0.847988 0
M  V30 28 H 6.43658 -0.863896 -0.185821 0
M  V30 29 H 4.46687 -2.21925 -0.914267 0
M  V30 END ATOM
M  V30 BEGIN BOND
M  V30 1 1 1 2
M  V30 2 1 2 3
M  V30 3 2 2 4
M  V30 4 1 4 5
M  V30 5 2 5 6
M  V30 6 1 6 7
M  V30 7 2 7 8
M  V30 8 1 8 9
M  V30 9 1 7 10
M  V30 10 2 10 11
M  V30 11 1 11 12
M  V30 12 2 12 13
M  V30 13 1 13 14
M  V30 14 1 13 15
M  V30 15 2 15 16
M  V30 16 1 16 17
M  V30 17 2 17 18
M  V30 18 1 9 5
M  V30 19 1 14 10
M  V30 20 1 18 12
M  V30 21 1 1 19
M  V30 22 1 1 20
M  V30 23 1 3 21
M  V30 24 1 3 22
M  V30 25 1 8 23
M  V30 26 1 11 24
M  V30 27 1 14 25
M  V30 28 1 15 26
M  V30 29 1 16 27
M  V30 30 1 17 28
M  V30 31 1 18 29
M  V30 END BOND
M  V30 END CTAB
M  END
