
     RDKit          3D

  0  0  0  0  0  0  0  0  0  0999 V3000
M  V30 BEGIN CTAB
M  V30 COUNTS 34 35 0 0 0
M  V30 BEGIN ATOM
M  V30 1 C 0.401794 -2.44837 1.08774 0
M  V30 2 C -0.284579 -1.1345 0.755019 0
M  V30 3 C -1.73856 -1.33213 0.639562 0
M  V30 4 O -2.16093 -2.52396 0.679639 0
M  V30 5 N -2.67752 -0.284902 0.487826 0
M  V30 6 C -2.37485 1.12672 0.43567 0
M  V30 7 C -3.50036 1.62676 -0.480904 0
M  V30 8 C -4.68733 0.93436 0.203738 0
M  V30 9 C -4.11621 -0.465703 0.359622 0
M  V30 10 S 0.346485 -0.460067 -0.80698 0
M  V30 11 C 2.06555 -0.0023044 -0.591717 0
M  V30 12 N 2.42051 1.2292 -0.179357 0
M  V30 13 C 3.7022 1.60941 -0.00403966 0
M  V30 14 N 4.0479 2.91916 0.432431 0
M  V30 15 N 4.65062 0.689118 -0.262301 0
M  V30 16 C 4.35838 -0.561901 -0.678301 0
M  V30 17 N 3.062 -0.88297 -0.835336 0
M  V30 18 N 5.39438 -1.49768 -0.936941 0
M  V30 19 H 1.27888 -2.27081 1.72891 0
M  V30 20 H -0.354935 -3.07149 1.62309 0
M  V30 21 H 0.639583 -3.00691 0.161029 0
M  V30 22 H -0.0691299 -0.41244 1.55024 0
M  V30 23 H -2.55541 1.51294 1.47202 0
M  V30 24 H -1.39548 1.39133 0.0553532 0
M  V30 25 H -3.60021 2.71448 -0.458041 0
M  V30 26 H -3.38607 1.175 -1.46573 0
M  V30 27 H -5.59411 0.970654 -0.396854 0
M  V30 28 H -4.82972 1.42587 1.18426 0
M  V30 29 H -4.547 -0.999179 1.22163 0
M  V30 30 H -4.36612 -1.01967 -0.576052 0
M  V30 31 H 4.22253 3.13595 1.4336 0
M  V30 32 H 4.13033 3.68351 -0.25469 0
M  V30 33 H 5.15762 -2.51127 -0.847822 0
M  V30 34 H 6.35977 -1.25822 -1.20513 0
M  V30 END ATOM
M  V30 BEGIN BOND
M  V30 1 1 1 2
M  V30 2 1 2 3
M  V30 3 2 3 4
M  V30 4 1 3 5
M  V30 5 1 5 6
M  V30 6 1 6 7
M  V30 7 1 7 8
M  V30 8 1 8 9
M  V30 9 1 2 10
M  V30 10 1 10 11
M  V30 11 2 11 12
M  V30 12 1 12 13
M  V30 13 1 13 14
M  V30 14 2 13 15
M  V30 15 1 15 16
M  V30 16 2 16 17
M  V30 17 1 16 18
M  V30 18 1 9 5
M  V30 19 1 17 11
M  V30 20 1 1 19
M  V30 21 1 1 20
M  V30 22 1 1 21
M  V30 23 1 2 22
M  V30 24 1 6 23
M  V30 25 1 6 24
M  V30 26 1 7 25
M  V30 27 1 7 26
M  V30 28 1 8 27
M  V30 29 1 8 28
M  V30 30 1 9 29
M  V30 31 1 9 30
M  V30 32 1 14 31
M  V30 33 1 14 32
M  V30 34 1 18 33
M  V30 35 1 18 34
M  V30 END BOND
M  V30 END CTAB
M  END
