
     RDKit          3D

  0  0  0  0  0  0  0  0  0  0999 V3000
M  V30 BEGIN CTAB
M  V30 COUNTS 26 27 0 0 0
M  V30 BEGIN ATOM
M  V30 1 N 4.43824 0.245354 -0.408238 0
M  V30 2 C 3.01545 0.267202 -0.295498 0
M  V30 3 C 2.29147 1.10578 -1.11831 0
M  V30 4 C 0.945902 1.14376 -1.03303 0
M  V30 5 C 0.197432 0.355417 -0.126318 0
M  V30 6 C 0.933413 -0.456452 0.672354 0
M  V30 7 C 2.34439 -0.510082 0.595128 0
M  V30 8 N 0.344031 -1.22637 1.69978 0
M  V30 9 C -1.23971 0.581685 -0.108493 0
M  V30 10 S -1.91056 2.18337 -0.366744 0
M  V30 11 C -3.55524 1.75757 -0.322953 0
M  V30 12 C -3.53951 0.426127 -0.118255 0
M  V30 13 C -2.33056 -0.18775 -0.00883364 0
M  V30 14 C -2.2989 -1.6937 0.113702 0
M  V30 15 H 4.87233 0.38672 -1.36144 0
M  V30 16 H 5.07774 0.100772 0.377557 0
M  V30 17 H 2.86651 1.72681 -1.83137 0
M  V30 18 H 0.385501 1.80054 -1.67835 0
M  V30 19 H 2.89034 -1.17151 1.24677 0
M  V30 20 H 0.546833 -2.24106 1.79416 0
M  V30 21 H -0.306195 -0.76647 2.37498 0
M  V30 22 H -4.42341 2.43322 -0.438122 0
M  V30 23 H -4.51022 -0.0974247 -0.0446179 0
M  V30 24 H -1.41199 -2.14669 -0.308641 0
M  V30 25 H -2.43388 -1.93304 1.17736 0
M  V30 26 H -3.18939 -2.08377 -0.482578 0
M  V30 END ATOM
M  V30 BEGIN BOND
M  V30 1 1 1 2
M  V30 2 2 2 3
M  V30 3 1 3 4
M  V30 4 2 4 5
M  V30 5 1 5 6
M  V30 6 2 6 7
M  V30 7 1 6 8
M  V30 8 1 5 9
M  V30 9 1 9 10
M  V30 10 1 10 11
M  V30 11 2 11 12
M  V30 12 1 12 13
M  V30 13 1 13 14
M  V30 14 1 7 2
M  V30 15 2 13 9
M  V30 16 1 1 15
M  V30 17 1 1 16
M  V30 18 1 3 17
M  V30 19 1 4 18
M  V30 20 1 7 19
M  V30 21 1 8 20
M  V30 22 1 8 21
M  V30 23 1 11 22
M  V30 24 1 12 23
M  V30 25 1 14 24
M  V30 26 1 14 25
M  V30 27 1 14 26
M  V30 END BOND
M  V30 END CTAB
M  END
