
     RDKit          3D

  0  0  0  0  0  0  0  0  0  0999 V3000
M  V30 BEGIN CTAB
M  V30 COUNTS 18 18 0 0 0
M  V30 BEGIN ATOM
M  V30 1 C 2.9965 -0.984854 -0.174408 0
M  V30 2 C 2.36514 0.135218 0.00803538 0
M  V30 3 C 0.91283 0.229314 0.0302584 0
M  V30 4 C 0.100428 -0.881563 -0.143603 0
M  V30 5 C -1.27425 -0.789385 -0.122067 0
M  V30 6 N -2.13005 -1.90339 -0.296209 0
M  V30 7 N -1.80656 0.415136 0.0734126 0
M  V30 8 C -1.06183 1.5449 0.25063 0
M  V30 9 N 0.270063 1.39735 0.220443 0
M  V30 10 N -1.68991 2.80216 0.45503 0
M  V30 11 H 2.54399 -1.95103 -0.326877 0
M  V30 12 H 4.0944 -1.01255 -0.18426 0
M  V30 13 H 2.93185 1.04319 0.150617 0
M  V30 14 H 0.518003 -1.86216 -0.302673 0
M  V30 15 H -3.01312 -1.96894 0.245231 0
M  V30 16 H -1.92701 -2.69767 -0.959142 0
M  V30 17 H -1.63944 3.53676 -0.271161 0
M  V30 18 H -2.19104 2.94753 1.34674 0
M  V30 END ATOM
M  V30 BEGIN BOND
M  V30 1 2 1 2 CFG=2
M  V30 2 1 2 3
M  V30 3 2 3 4
M  V30 4 1 4 5
M  V30 5 1 5 6
M  V30 6 2 5 7
M  V30 7 1 7 8
M  V30 8 2 8 9
M  V30 9 1 8 10
M  V30 10 1 9 3
M  V30 11 1 1 11
M  V30 12 1 1 12
M  V30 13 1 2 13
M  V30 14 1 4 14
M  V30 15 1 6 15
M  V30 16 1 6 16
M  V30 17 1 10 17
M  V30 18 1 10 18
M  V30 END BOND
M  V30 END CTAB
M  END
