
     RDKit          3D

  0  0  0  0  0  0  0  0  0  0999 V3000
M  V30 BEGIN CTAB
M  V30 COUNTS 141 145 0 0 0
M  V30 BEGIN ATOM
M  V30 1 C 4.98046 -2.72337 -0.754547 0 CFG=2
M  V30 2 N 5.81475 -2.5996 0.421682 0
M  V30 3 C 5.68369 -1.98855 -1.88592 0
M  V30 4 C 7.03153 -2.52899 -2.07427 0
M  V30 5 C 7.38089 -3.58176 -2.87839 0
M  V30 6 C 8.70537 -4.00335 -3.02818 0
M  V30 7 C 9.69861 -3.36526 -2.35683 0
M  V30 8 C 9.39381 -2.29673 -1.52923 0
M  V30 9 C 8.10252 -1.88837 -1.39526 0
M  V30 10 C 3.7053 -1.91659 -0.502891 0
M  V30 11 O 2.90681 -1.87955 -1.43537 0
M  V30 12 N 3.54669 -1.27846 0.723668 0
M  V30 13 C 2.5133 -0.374981 1.14396 0 CFG=1
M  V30 14 C 1.80675 0.285411 -0.0397843 0
M  V30 15 C 2.76704 1.16526 -0.813673 0
M  V30 16 C 2.40498 2.5997 -0.895523 0
M  V30 17 C 2.15864 3.32631 0.379841 0
M  V30 18 C 0.847512 3.97682 0.465658 0 CFG=2
M  V30 19 N 0.10169 4.25351 -0.734832 0
M  V30 20 C -1.17016 3.93917 -1.15296 0
M  V30 21 O -1.90993 4.94554 -1.51104 0
M  V30 22 C -1.79317 2.59354 -1.22224 0 CFG=1
M  V30 23 N -2.93123 2.54062 -0.344799 0
M  V30 24 C -4.22766 2.12052 -0.450442 0
M  V30 25 O -5.08843 3.10122 -0.604767 0
M  V30 26 C -4.87672 0.787404 -0.433027 0 CFG=2
M  V30 27 C -5.49074 0.47781 0.900793 0
M  V30 28 C -4.65239 0.453332 2.09548 0
M  V30 29 C -5.44995 0.338259 3.36659 0
M  V30 30 C -6.29365 1.5205 3.71082 0
M  V30 31 N -7.28956 1.97703 2.86524 0
M  V30 32 N -4.33274 -0.242512 -1.2337 0
M  V30 33 C -3.96696 -1.58017 -1.06405 0
M  V30 34 O -4.86297 -2.46446 -1.44682 0
M  V30 35 C -2.78439 -2.23723 -0.543038 0 CFG=1
M  V30 36 C -2.18026 -3.33375 -1.37057 0
M  V30 37 C -3.02537 -4.49878 -1.64584 0
M  V30 38 C -3.39476 -5.3966 -0.629138 0
M  V30 39 N -4.22215 -6.27891 -1.20199 0
M  V30 40 C -4.39801 -5.99682 -2.49975 0
M  V30 41 C -3.6608 -4.88594 -2.80337 0
M  V30 42 C -3.64527 -4.42471 -4.10228 0
M  V30 43 C -4.37985 -5.107 -5.07005 0
M  V30 44 C -5.11523 -6.22675 -4.74707 0
M  V30 45 C -5.14301 -6.69635 -3.45135 0
M  V30 46 N -1.67374 -1.37711 -0.15279 0
M  V30 47 C -1.00594 -1.3627 1.06484 0
M  V30 48 O -1.12555 -0.233023 1.75624 0
M  V30 49 C -0.169831 -2.33193 1.78848 0 CFG=2
M  V30 50 C -0.911682 -3.48612 2.35807 0
M  V30 51 C -0.225999 -4.35528 3.30317 0
M  V30 52 C -0.551199 -4.17144 4.66723 0
M  V30 53 C 0.020722 -4.87082 5.67847 0
M  V30 54 C 0.986391 -5.82194 5.3421 0
M  V30 55 C 1.3209 -6.02443 4.03253 0
M  V30 56 C 0.702078 -5.27688 3.01222 0
M  V30 57 N 0.882102 -1.80233 2.58998 0
M  V30 58 C 1.70283 -0.687422 2.2888 0
M  V30 59 O 1.72113 0.220218 3.24629 0
M  V30 60 C -1.95886 2.22768 -2.63426 0 CFG=1
M  V30 61 C -2.97044 2.9346 -3.44351 0
M  V30 62 O -0.715887 2.41086 -3.25148 0
M  V30 63 C 0.857078 5.36667 1.13837 0
M  V30 64 O -0.00379816 5.6083 1.97655 0
M  V30 65 N 1.86504 6.21895 0.679217 0
M  V30 66 C 2.25698 7.5306 0.994391 0 CFG=2
M  V30 67 C 1.15426 8.40137 1.64085 0
M  V30 68 O 0.819103 7.89812 2.86924 0
M  V30 69 C 2.69027 8.28875 -0.21199 0 CFG=1
M  V30 70 C 3.78736 7.58881 -1.00343 0
M  V30 71 O 1.61074 8.41407 -1.1293 0
M  V30 72 H 4.77461 -3.72576 -1.00827 0
M  V30 73 H 6.07584 -1.63547 0.654864 0
M  V30 74 H 5.55851 -3.20856 1.20506 0
M  V30 75 H 5.07818 -2.19588 -2.81385 0
M  V30 76 H 5.73063 -0.894512 -1.69847 0
M  V30 77 H 6.62912 -4.11845 -3.43187 0
M  V30 78 H 8.95516 -4.83517 -3.66788 0
M  V30 79 H 10.7569 -3.62138 -2.41423 0
M  V30 80 H 10.1895 -1.7891 -0.997742 0
M  V30 81 H 7.88024 -1.04961 -0.745656 0
M  V30 82 H 4.27767 -1.45015 1.50649 0
M  V30 83 H 3.20746 0.567511 1.42414 0
M  V30 84 H 1.06398 1.002 0.413743 0
M  V30 85 H 1.25284 -0.392687 -0.685595 0
M  V30 86 H 3.80951 0.956496 -0.495233 0
M  V30 87 H 2.74053 0.797066 -1.88847 0
M  V30 88 H 3.25745 3.123 -1.41665 0
M  V30 89 H 1.55978 2.68014 -1.61422 0
M  V30 90 H 2.97042 4.08196 0.600419 0
M  V30 91 H 2.2362 2.6431 1.27975 0
M  V30 92 H 0.142219 3.37237 1.14189 0
M  V30 93 H 0.731161 4.84005 -1.43206 0
M  V30 94 H -1.05243 1.87598 -0.771141 0
M  V30 95 H -2.64622 2.96408 0.611866 0
M  V30 96 H -5.88661 1.01648 -1.04507 0
M  V30 97 H -6.4662 0.940114 1.05444 0
M  V30 98 H -5.82084 -0.647063 0.773 0
M  V30 99 H -3.974 1.31958 2.26924 0
M  V30 100 H -3.94808 -0.446317 2.12636 0
M  V30 101 H -6.15202 -0.544619 3.34167 0
M  V30 102 H -4.7773 0.165096 4.24908 0
M  V30 103 H -6.78029 1.33827 4.73382 0
M  V30 104 H -5.62008 2.41431 3.96453 0
M  V30 105 H -7.25219 2.94779 2.54429 0
M  V30 106 H -8.22694 1.59681 2.84219 0
M  V30 107 H -4.19266 0.101481 -2.27279 0
M  V30 108 H -3.1625 -2.79359 0.389049 0
M  V30 109 H -1.24035 -3.72645 -0.910317 0
M  V30 110 H -1.8076 -2.897 -2.35876 0
M  V30 111 H -3.06769 -5.36607 0.386294 0
M  V30 112 H -4.67615 -7.08757 -0.703378 0
M  V30 113 H -3.06877 -3.55703 -4.32745 0
M  V30 114 H -4.38908 -4.78977 -6.12025 0
M  V30 115 H -5.70265 -6.8102 -5.46967 0
M  V30 116 H -5.70729 -7.56948 -3.16043 0
M  V30 117 H -1.37813 -0.692386 -0.914118 0
M  V30 118 H 0.489709 -2.89168 0.951083 0
M  V30 119 H -1.28641 -4.15076 1.46876 0
M  V30 120 H -1.87536 -3.14232 2.77614 0
M  V30 121 H -1.30225 -3.43024 4.8792 0
M  V30 122 H -0.209482 -4.7495 6.71717 0
M  V30 123 H 1.42765 -6.35997 6.17017 0
M  V30 124 H 2.07065 -6.76784 3.8366 0
M  V30 125 H 1.04369 -5.51472 1.9959 0
M  V30 126 H 1.09898 -2.28812 3.52429 0
M  V30 127 H -2.0911 1.0996 -2.7724 0
M  V30 128 H -2.56757 3.35128 -4.41467 0
M  V30 129 H -3.73839 2.18338 -3.80189 0
M  V30 130 H -3.53928 3.73587 -2.99316 0
M  V30 131 H -0.574213 3.29187 -3.63179 0
M  V30 132 H 2.5048 5.80806 -0.136641 0
M  V30 133 H 3.06962 7.49989 1.77244 0
M  V30 134 H 1.49184 9.449 1.75916 0
M  V30 135 H 0.260946 8.4683 0.969106 0
M  V30 136 H 1.518 8.10623 3.51889 0
M  V30 137 H 2.99307 9.31816 0.021484 0
M  V30 138 H 4.39707 8.35086 -1.50704 0
M  V30 139 H 4.41945 6.96635 -0.371027 0
M  V30 140 H 3.32645 6.98268 -1.84484 0
M  V30 141 H 0.861304 7.87024 -0.856546 0
M  V30 END ATOM
M  V30 BEGIN BOND
M  V30 1 1 1 2
M  V30 2 1 1 3
M  V30 3 1 3 4
M  V30 4 2 4 5
M  V30 5 1 5 6
M  V30 6 2 6 7
M  V30 7 1 7 8
M  V30 8 2 8 9
M  V30 9 1 1 10
M  V30 10 2 10 11
M  V30 11 1 10 12
M  V30 12 1 12 13
M  V30 13 1 13 14
M  V30 14 1 14 15
M  V30 15 1 15 16
M  V30 16 1 16 17
M  V30 17 1 17 18
M  V30 18 1 18 19
M  V30 19 1 19 20
M  V30 20 2 20 21
M  V30 21 1 20 22
M  V30 22 1 22 23
M  V30 23 1 23 24
M  V30 24 2 24 25
M  V30 25 1 24 26
M  V30 26 1 26 27
M  V30 27 1 27 28
M  V30 28 1 28 29
M  V30 29 1 29 30
M  V30 30 1 30 31
M  V30 31 1 26 32
M  V30 32 1 32 33
M  V30 33 2 33 34
M  V30 34 1 33 35
M  V30 35 1 35 36
M  V30 36 1 36 37
M  V30 37 2 37 38
M  V30 38 1 38 39
M  V30 39 1 39 40
M  V30 40 2 40 41
M  V30 41 1 41 42
M  V30 42 2 42 43
M  V30 43 1 43 44
M  V30 44 2 44 45
M  V30 45 1 35 46
M  V30 46 1 46 47
M  V30 47 2 47 48
M  V30 48 1 47 49
M  V30 49 1 49 50
M  V30 50 1 50 51
M  V30 51 2 51 52
M  V30 52 1 52 53
M  V30 53 2 53 54
M  V30 54 1 54 55
M  V30 55 2 55 56
M  V30 56 1 49 57
M  V30 57 1 57 58
M  V30 58 2 58 59
M  V30 59 1 22 60
M  V30 60 1 60 61
M  V30 61 1 60 62
M  V30 62 1 18 63
M  V30 63 2 63 64
M  V30 64 1 63 65
M  V30 65 1 65 66
M  V30 66 1 66 67
M  V30 67 1 67 68
M  V30 68 1 66 69
M  V30 69 1 69 70
M  V30 70 1 69 71
M  V30 71 1 9 4
M  V30 72 1 58 13
M  V30 73 1 41 37
M  V30 74 1 56 51
M  V30 75 1 45 40
M  V30 76 1 1 72 CFG=3
M  V30 77 1 2 73
M  V30 78 1 2 74
M  V30 79 1 3 75
M  V30 80 1 3 76
M  V30 81 1 5 77
M  V30 82 1 6 78
M  V30 83 1 7 79
M  V30 84 1 8 80
M  V30 85 1 9 81
M  V30 86 1 12 82
M  V30 87 1 13 83 CFG=1
M  V30 88 1 14 84
M  V30 89 1 14 85
M  V30 90 1 15 86
M  V30 91 1 15 87
M  V30 92 1 16 88
M  V30 93 1 16 89
M  V30 94 1 17 90
M  V30 95 1 17 91
M  V30 96 1 18 92 CFG=1
M  V30 97 1 19 93
M  V30 98 1 22 94 CFG=1
M  V30 99 1 23 95
M  V30 100 1 26 96 CFG=3
M  V30 101 1 27 97
M  V30 102 1 27 98
M  V30 103 1 28 99
M  V30 104 1 28 100
M  V30 105 1 29 101
M  V30 106 1 29 102
M  V30 107 1 30 103
M  V30 108 1 30 104
M  V30 109 1 31 105
M  V30 110 1 31 106
M  V30 111 1 32 107
M  V30 112 1 35 108 CFG=1
M  V30 113 1 36 109
M  V30 114 1 36 110
M  V30 115 1 38 111
M  V30 116 1 39 112
M  V30 117 1 42 113
M  V30 118 1 43 114
M  V30 119 1 44 115
M  V30 120 1 45 116
M  V30 121 1 46 117
M  V30 122 1 49 118 CFG=3
M  V30 123 1 50 119
M  V30 124 1 50 120
M  V30 125 1 52 121
M  V30 126 1 53 122
M  V30 127 1 54 123
M  V30 128 1 55 124
M  V30 129 1 56 125
M  V30 130 1 57 126
M  V30 131 1 60 127 CFG=1
M  V30 132 1 61 128
M  V30 133 1 61 129
M  V30 134 1 61 130
M  V30 135 1 62 131
M  V30 136 1 65 132
M  V30 137 1 66 133 CFG=1
M  V30 138 1 67 134
M  V30 139 1 67 135
M  V30 140 1 68 136
M  V30 141 1 69 137 CFG=1
M  V30 142 1 70 138
M  V30 143 1 70 139
M  V30 144 1 70 140
M  V30 145 1 71 141
M  V30 END BOND
M  V30 END CTAB
M  END
