
     RDKit          3D

  0  0  0  0  0  0  0  0  0  0999 V3000
M  V30 BEGIN CTAB
M  V30 COUNTS 34 35 0 0 0
M  V30 BEGIN ATOM
M  V30 1 N -2.66513 -1.40855 -0.430087 0
M  V30 2 C -1.74572 -1.54899 -1.47339 0
M  V30 3 C -1.01513 -0.310556 -1.84576 0
M  V30 4 C -0.184569 0.310342 -0.7516 0 CFG=2
M  V30 5 C 0.866244 -0.559274 -0.229332 0
M  V30 6 C 1.41988 -1.55679 -0.992237 0
M  V30 7 C 2.42926 -2.37759 -0.473584 0
M  V30 8 C 2.8784 -2.19416 0.807182 0
M  V30 9 C 2.33134 -1.20061 1.57618 0
M  V30 10 C 1.34273 -0.40549 1.05144 0
M  V30 11 C 0.773269 0.672486 1.94115 0
M  V30 12 C -0.70254 0.697747 1.59636 0
M  V30 13 N -0.958319 0.98112 0.236522 0
M  V30 14 S -1.1758 2.65155 -0.0987389 0
M  V30 15 O -2.04736 3.22932 0.971129 0
M  V30 16 O -1.90999 2.77953 -1.40125 0
M  V30 17 N 0.304671 3.51547 -0.150691 0
M  V30 18 H -2.47581 -1.94871 0.359777 0
M  V30 19 H -3.25272 -0.649865 -0.359536 0
M  V30 20 H -1.0819 -2.43658 -1.3132 0
M  V30 21 H -2.34901 -1.83852 -2.38573 0
M  V30 22 H -0.365873 -0.513451 -2.72367 0
M  V30 23 H -1.7509 0.445223 -2.1768 0
M  V30 24 H 0.367043 1.14548 -1.29834 0
M  V30 25 H 1.10948 -1.75187 -2.00863 0
M  V30 26 H 2.86522 -3.15805 -1.0647 0
M  V30 27 H 3.67229 -2.83729 1.21974 0
M  V30 28 H 2.67723 -1.03542 2.60828 0
M  V30 29 H 0.889528 0.355714 2.99035 0
M  V30 30 H 1.29505 1.59996 1.69898 0
M  V30 31 H -1.24571 1.4655 2.20496 0
M  V30 32 H -1.10955 -0.26876 1.91427 0
M  V30 33 H 0.64179 3.81342 0.78464 0
M  V30 34 H 0.172593 4.33766 -0.783676 0
M  V30 END ATOM
M  V30 BEGIN BOND
M  V30 1 1 1 2
M  V30 2 1 2 3
M  V30 3 1 3 4
M  V30 4 1 4 5
M  V30 5 2 5 6
M  V30 6 1 6 7
M  V30 7 2 7 8
M  V30 8 1 8 9
M  V30 9 2 9 10
M  V30 10 1 10 11
M  V30 11 1 11 12
M  V30 12 1 12 13
M  V30 13 1 13 14
M  V30 14 2 14 15
M  V30 15 2 14 16
M  V30 16 1 14 17
M  V30 17 1 13 4
M  V30 18 1 10 5
M  V30 19 1 1 18
M  V30 20 1 1 19
M  V30 21 1 2 20
M  V30 22 1 2 21
M  V30 23 1 3 22
M  V30 24 1 3 23
M  V30 25 1 4 24 CFG=3
M  V30 26 1 6 25
M  V30 27 1 7 26
M  V30 28 1 8 27
M  V30 29 1 9 28
M  V30 30 1 11 29
M  V30 31 1 11 30
M  V30 32 1 12 31
M  V30 33 1 12 32
M  V30 34 1 17 33
M  V30 35 1 17 34
M  V30 END BOND
M  V30 END CTAB
M  END
