
     RDKit          3D

  0  0  0  0  0  0  0  0  0  0999 V3000
M  V30 BEGIN CTAB
M  V30 COUNTS 31 32 0 0 0
M  V30 BEGIN ATOM
M  V30 1 N -1.31971 -2.97196 -0.372752 0
M  V30 2 N -0.315487 -2.07773 -0.260663 0
M  V30 3 C -0.286173 -0.811121 -0.120739 0
M  V30 4 C -1.51672 -0.058713 -0.0508145 0
M  V30 5 C -2.67457 -0.621234 0.465964 0
M  V30 6 C -3.90051 0.00106623 0.445693 0
M  V30 7 C -4.02086 1.24816 -0.107172 0
M  V30 8 C -2.87764 1.81333 -0.621436 0
M  V30 9 C -1.65455 1.19588 -0.604622 0
M  V30 10 C 1.06159 -0.225943 -0.0168981 0
M  V30 11 C 1.32293 1.05971 0.361202 0
M  V30 12 C 2.61837 1.5709 0.526535 0
M  V30 13 C 3.65648 0.703222 0.288979 0
M  V30 14 C 3.46517 -0.603082 -0.0920288 0
M  V30 15 C 2.16854 -1.03652 -0.235967 0
M  V30 16 N 1.97206 -2.40855 -0.638984 0
M  V30 17 N 2.8181 2.92191 0.920747 0 CHG=1
M  V30 18 O 4.07977 3.42202 1.08282 0 CHG=-1
M  V30 19 O 1.85491 3.67351 1.12545 0
M  V30 20 H -1.53805 -3.72478 0.331736 0
M  V30 21 H -1.96818 -2.9664 -1.20609 0
M  V30 22 H -2.68022 -1.6067 0.964683 0
M  V30 23 H -4.77624 -0.49363 0.867374 0
M  V30 24 H -4.98226 1.78155 -0.143298 0
M  V30 25 H -3.00563 2.81637 -1.05858 0
M  V30 26 H -0.824476 1.70539 -1.07117 0
M  V30 27 H 0.543595 1.75115 0.601184 0
M  V30 28 H 4.68382 1.04013 0.400273 0
M  V30 29 H 4.28123 -1.29569 -0.281011 0
M  V30 30 H 1.79262 -2.69065 -1.6237 0
M  V30 31 H 2.02208 -3.11162 0.123294 0
M  V30 END ATOM
M  V30 BEGIN BOND
M  V30 1 1 1 2
M  V30 2 2 2 3 CFG=2
M  V30 3 1 3 4
M  V30 4 2 4 5
M  V30 5 1 5 6
M  V30 6 2 6 7
M  V30 7 1 7 8
M  V30 8 2 8 9
M  V30 9 1 3 10
M  V30 10 2 10 11
M  V30 11 1 11 12
M  V30 12 2 12 13
M  V30 13 1 13 14
M  V30 14 2 14 15
M  V30 15 1 15 16
M  V30 16 1 12 17
M  V30 17 1 17 18
M  V30 18 2 17 19
M  V30 19 1 9 4
M  V30 20 1 15 10
M  V30 21 1 1 20
M  V30 22 1 1 21
M  V30 23 1 5 22
M  V30 24 1 6 23
M  V30 25 1 7 24
M  V30 26 1 8 25
M  V30 27 1 9 26
M  V30 28 1 11 27
M  V30 29 1 13 28
M  V30 30 1 14 29
M  V30 31 1 16 30
M  V30 32 1 16 31
M  V30 END BOND
M  V30 END CTAB
M  END
