
     RDKit          3D

  0  0  0  0  0  0  0  0  0  0999 V3000
M  V30 BEGIN CTAB
M  V30 COUNTS 55 57 0 0 0
M  V30 BEGIN ATOM
M  V30 1 N -4.01047 0.596704 -0.901132 0
M  V30 2 C -4.39685 0.708945 0.435833 0 CFG=1
M  V30 3 C -5.38629 -0.349145 0.904022 0
M  V30 4 C -6.61327 -0.240985 0.0826368 0
M  V30 5 C -7.63943 0.630744 0.463912 0
M  V30 6 C -8.7568 0.686528 -0.327273 0
M  V30 7 C -8.92721 -0.0651125 -1.47433 0
M  V30 8 C -7.91316 -0.91722 -1.83826 0
M  V30 9 C -6.77941 -0.992602 -1.06062 0
M  V30 10 C -3.34738 0.965991 1.4038 0
M  V30 11 O -3.77304 1.77043 2.38477 0
M  V30 12 N -2.04702 0.59447 1.54629 0
M  V30 13 C -1.24196 -0.36097 0.880413 0
M  V30 14 C -1.68343 -1.3814 0.0868236 0
M  V30 15 C -0.77175 -2.17653 -0.567375 0
M  V30 16 C 0.575947 -1.93141 -0.408479 0
M  V30 17 C 1.06234 -0.924983 0.376501 0
M  V30 18 N 2.42467 -0.60432 0.596769 0
M  V30 19 C 3.50264 -1.2978 0.0211439 0
M  V30 20 O 3.43443 -2.26972 -0.746669 0
M  V30 21 C 4.92108 -0.857254 0.334986 0 CFG=1
M  V30 22 N 5.818 -1.72888 -0.377484 0
M  V30 23 C 5.02575 0.556802 -0.21289 0
M  V30 24 C 6.38043 1.09993 0.0363147 0
M  V30 25 C 6.61306 1.77757 1.20279 0
M  V30 26 C 7.88292 2.27994 1.42356 0
M  V30 27 C 8.86801 2.08555 0.471702 0
M  V30 28 C 8.60625 1.39799 -0.696751 0
M  V30 29 C 7.3452 0.888665 -0.936061 0
M  V30 30 N 0.116774 -0.175419 0.993622 0
M  V30 31 H -3.77512 1.43224 -1.41153 0
M  V30 32 H -4.14478 -0.193966 -1.44822 0
M  V30 33 H -5.06203 1.66615 0.426472 0
M  V30 34 H -5.00356 -1.36973 0.794499 0
M  V30 35 H -5.63525 -0.101186 1.95906 0
M  V30 36 H -7.51135 1.21276 1.34917 0
M  V30 37 H -9.55723 1.36558 -0.0310836 0
M  V30 38 H -9.84902 0.0370342 -2.05145 0
M  V30 39 H -8.0161 -1.51556 -2.72602 0
M  V30 40 H -5.98759 -1.67767 -1.36093 0
M  V30 41 H -1.52128 1.03396 2.43878 0
M  V30 42 H -2.74347 -1.59863 0.0165094 0
M  V30 43 H -1.14245 -2.97227 -1.18839 0
M  V30 44 H 1.27591 -2.57166 -0.934496 0
M  V30 45 H 2.64637 0.230297 1.25209 0
M  V30 46 H 5.11974 -0.903077 1.41302 0
M  V30 47 H 5.43196 -2.6961 -0.30793 0
M  V30 48 H 6.7688 -1.74078 0.0143582 0
M  V30 49 H 4.80504 0.529854 -1.28986 0
M  V30 50 H 4.29295 1.23398 0.260311 0
M  V30 51 H 5.85407 1.93749 1.95564 0
M  V30 52 H 8.11428 2.82909 2.34366 0
M  V30 53 H 9.87132 2.48199 0.645241 0
M  V30 54 H 9.35725 1.23553 -1.44982 0
M  V30 55 H 7.12151 0.34818 -1.84409 0
M  V30 END ATOM
M  V30 BEGIN BOND
M  V30 1 1 1 2
M  V30 2 1 2 3
M  V30 3 1 3 4
M  V30 4 2 4 5
M  V30 5 1 5 6
M  V30 6 2 6 7
M  V30 7 1 7 8
M  V30 8 2 8 9
M  V30 9 1 2 10
M  V30 10 2 10 11
M  V30 11 1 10 12
M  V30 12 1 12 13
M  V30 13 2 13 14
M  V30 14 1 14 15
M  V30 15 2 15 16
M  V30 16 1 16 17
M  V30 17 1 17 18
M  V30 18 1 18 19
M  V30 19 2 19 20
M  V30 20 1 19 21
M  V30 21 1 21 22
M  V30 22 1 21 23
M  V30 23 1 23 24
M  V30 24 2 24 25
M  V30 25 1 25 26
M  V30 26 2 26 27
M  V30 27 1 27 28
M  V30 28 2 28 29
M  V30 29 2 17 30
M  V30 30 1 9 4
M  V30 31 1 30 13
M  V30 32 1 29 24
M  V30 33 1 1 31
M  V30 34 1 1 32
M  V30 35 1 2 33 CFG=3
M  V30 36 1 3 34
M  V30 37 1 3 35
M  V30 38 1 5 36
M  V30 39 1 6 37
M  V30 40 1 7 38
M  V30 41 1 8 39
M  V30 42 1 9 40
M  V30 43 1 12 41
M  V30 44 1 14 42
M  V30 45 1 15 43
M  V30 46 1 16 44
M  V30 47 1 18 45
M  V30 48 1 21 46 CFG=1
M  V30 49 1 22 47
M  V30 50 1 22 48
M  V30 51 1 23 49
M  V30 52 1 23 50
M  V30 53 1 25 51
M  V30 54 1 26 52
M  V30 55 1 27 53
M  V30 56 1 28 54
M  V30 57 1 29 55
M  V30 END BOND
M  V30 END CTAB
M  END
