
     RDKit          3D

  0  0  0  0  0  0  0  0  0  0999 V3000
M  V30 BEGIN CTAB
M  V30 COUNTS 20 21 0 0 0
M  V30 BEGIN ATOM
M  V30 1 Cl 3.02644 1.65441 2.9517 0
M  V30 2 C 2.1331 0.916173 1.61018 0
M  V30 3 N 2.77962 0.382676 0.565728 0
M  V30 4 C 2.18856 -0.193037 -0.486616 0
M  V30 5 N 2.90057 -0.74994 -1.57901 0
M  V30 6 C 0.812676 -0.239625 -0.494739 0
M  V30 7 C 0.14043 0.312506 0.586382 0
M  V30 8 N 0.791424 0.877257 1.61456 0
M  V30 9 N -1.20168 0.15917 0.374919 0
M  V30 10 C -2.24758 0.597316 1.26267 0
M  V30 11 C -1.30902 -0.467422 -0.801479 0
M  V30 12 N -0.10573 -0.714686 -1.33804 0
M  V30 13 N -2.56346 -0.822342 -1.3985 0
M  V30 14 H 3.89465 -0.506866 -1.79865 0
M  V30 15 H 2.44632 -1.43565 -2.21363 0
M  V30 16 H -3.16973 0.746787 0.630735 0
M  V30 17 H -2.5333 -0.205257 1.99762 0
M  V30 18 H -1.98491 1.54699 1.78277 0
M  V30 19 H -2.76032 -0.380158 -2.32449 0
M  V30 20 H -3.23807 -1.47831 -0.942102 0
M  V30 END ATOM
M  V30 BEGIN BOND
M  V30 1 1 1 2
M  V30 2 2 2 3
M  V30 3 1 3 4
M  V30 4 1 4 5
M  V30 5 2 4 6
M  V30 6 1 6 7
M  V30 7 2 7 8
M  V30 8 1 7 9
M  V30 9 1 9 10
M  V30 10 1 9 11
M  V30 11 2 11 12
M  V30 12 1 11 13
M  V30 13 1 8 2
M  V30 14 1 12 6
M  V30 15 1 5 14
M  V30 16 1 5 15
M  V30 17 1 10 16
M  V30 18 1 10 17
M  V30 19 1 10 18
M  V30 20 1 13 19
M  V30 21 1 13 20
M  V30 END BOND
M  V30 END CTAB
M  END
