
     RDKit          3D

  0  0  0  0  0  0  0  0  0  0999 V3000
M  V30 BEGIN CTAB
M  V30 COUNTS 40 41 0 0 0
M  V30 BEGIN ATOM
M  V30 1 N -6.67434 1.32757 0.621646 0
M  V30 2 C -5.51367 0.957529 1.4207 0
M  V30 3 C -4.73677 -0.0876901 0.693467 0
M  V30 4 C -4.992 -1.43161 0.870536 0
M  V30 5 C -4.27928 -2.39976 0.203063 0
M  V30 6 C -3.28807 -1.96819 -0.660076 0
M  V30 7 C -2.99839 -0.635484 -0.868108 0
M  V30 8 C -3.73994 0.305645 -0.176054 0
M  V30 9 C -1.92769 -0.292723 -1.80503 0
M  V30 10 N -0.613044 -0.211183 -1.15053 0
M  V30 11 C 0.482462 0.110517 -1.95482 0
M  V30 12 O 0.26958 0.311879 -3.20239 0
M  V30 13 N 1.79312 0.226698 -1.48761 0
M  V30 14 C 2.287 0.0576195 -0.178633 0
M  V30 15 O 1.5152 -0.234268 0.756306 0
M  V30 16 C 3.71015 0.218869 0.12098 0
M  V30 17 C 4.12349 0.250368 1.45951 0
M  V30 18 C 5.43887 0.39433 1.81747 0
M  V30 19 C 6.42255 0.515732 0.858169 0
M  V30 20 C 6.04981 0.488403 -0.451768 0
M  V30 21 C 4.70346 0.340974 -0.816842 0
M  V30 22 N 7.78341 0.664632 1.23857 0
M  V30 23 H -6.92059 0.534254 -0.0174778 0
M  V30 24 H -6.47164 2.19913 0.0702318 0
M  V30 25 H -4.91438 1.83481 1.68398 0
M  V30 26 H -5.90041 0.50292 2.35652 0
M  V30 27 H -5.77029 -1.71113 1.55044 0
M  V30 28 H -4.45962 -3.44952 0.324508 0
M  V30 29 H -2.72374 -2.75102 -1.18917 0
M  V30 30 H -3.51484 1.35105 -0.33735 0
M  V30 31 H -1.85571 -1.08977 -2.57006 0
M  V30 32 H -2.16018 0.653917 -2.34622 0
M  V30 33 H -0.594153 -0.401138 -0.124806 0
M  V30 34 H 2.51307 0.48506 -2.26621 0
M  V30 35 H 3.37055 0.157046 2.2287 0
M  V30 36 H 5.76672 0.419531 2.86035 0
M  V30 37 H 6.80497 0.582178 -1.2404 0
M  V30 38 H 4.43338 0.31937 -1.87448 0
M  V30 39 H 8.40994 1.26062 0.661211 0
M  V30 40 H 8.17101 0.192838 2.08052 0
M  V30 END ATOM
M  V30 BEGIN BOND
M  V30 1 1 1 2
M  V30 2 1 2 3
M  V30 3 2 3 4
M  V30 4 1 4 5
M  V30 5 2 5 6
M  V30 6 1 6 7
M  V30 7 2 7 8
M  V30 8 1 7 9
M  V30 9 1 9 10
M  V30 10 1 10 11
M  V30 11 2 11 12
M  V30 12 1 11 13
M  V30 13 1 13 14
M  V30 14 2 14 15
M  V30 15 1 14 16
M  V30 16 2 16 17
M  V30 17 1 17 18
M  V30 18 2 18 19
M  V30 19 1 19 20
M  V30 20 2 20 21
M  V30 21 1 19 22
M  V30 22 1 8 3
M  V30 23 1 21 16
M  V30 24 1 1 23
M  V30 25 1 1 24
M  V30 26 1 2 25
M  V30 27 1 2 26
M  V30 28 1 4 27
M  V30 29 1 5 28
M  V30 30 1 6 29
M  V30 31 1 8 30
M  V30 32 1 9 31
M  V30 33 1 9 32
M  V30 34 1 10 33
M  V30 35 1 13 34
M  V30 36 1 17 35
M  V30 37 1 18 36
M  V30 38 1 20 37
M  V30 39 1 21 38
M  V30 40 1 22 39
M  V30 41 1 22 40
M  V30 END BOND
M  V30 END CTAB
M  END
