
     RDKit          3D

  0  0  0  0  0  0  0  0  0  0999 V3000
M  V30 BEGIN CTAB
M  V30 COUNTS 32 33 0 0 0
M  V30 BEGIN ATOM
M  V30 1 N 5.68503 -0.129158 0.927357 0
M  V30 2 C 4.26433 -0.148472 0.773674 0
M  V30 3 C 3.44137 -0.793965 1.67407 0
M  V30 4 C 2.07275 -0.794036 1.49713 0
M  V30 5 C 1.46057 -0.16361 0.434546 0
M  V30 6 C 2.291 0.480012 -0.461914 0
M  V30 7 C 3.66045 0.484439 -0.2917 0
M  V30 8 C 0.00769429 -0.160642 0.242922 0
M  V30 9 C -0.564603 0.939152 -0.373026 0
M  V30 10 C -1.91616 1.03888 -0.598939 0
M  V30 11 C -2.55651 2.1994 -1.25348 0
M  V30 12 C -2.71562 -2.1511e-07 -0.192393 0
M  V30 13 C -2.18341 -1.11623 0.426439 0
M  V30 14 C -0.811545 -1.18723 0.640812 0
M  V30 15 N -3.0403 -2.17517 0.834717 0
M  V30 16 C -4.16925 0.0644256 -0.414606 0
M  V30 17 H 6.18785 -0.902476 1.41148 0
M  V30 18 H 6.23765 0.671234 0.55049 0
M  V30 19 H 3.89802 -1.30169 2.52538 0
M  V30 20 H 1.4217 -1.30089 2.20308 0
M  V30 21 H 1.84378 0.988264 -1.31203 0
M  V30 22 H 4.32732 0.99195 -0.996919 0
M  V30 23 H 0.05764 1.75049 -0.690518 0
M  V30 24 H -3.02079 1.96347 -2.21641 0
M  V30 25 H -1.74268 2.94769 -1.45514 0
M  V30 26 H -3.26175 2.72446 -0.567621 0
M  V30 27 H -0.364239 -2.06291 1.12989 0
M  V30 28 H -3.15896 -3.06187 0.302822 0
M  V30 29 H -3.60962 -2.09627 1.72813 0
M  V30 30 H -4.5321 1.05533 -0.702882 0
M  V30 31 H -4.50049 -0.665983 -1.20666 0
M  V30 32 H -4.70913 -0.238596 0.520061 0
M  V30 END ATOM
M  V30 BEGIN BOND
M  V30 1 1 1 2
M  V30 2 2 2 3
M  V30 3 1 3 4
M  V30 4 2 4 5
M  V30 5 1 5 6
M  V30 6 2 6 7
M  V30 7 1 5 8
M  V30 8 2 8 9
M  V30 9 1 9 10
M  V30 10 1 10 11
M  V30 11 2 10 12
M  V30 12 1 12 13
M  V30 13 2 13 14
M  V30 14 1 13 15
M  V30 15 1 12 16
M  V30 16 1 7 2
M  V30 17 1 14 8
M  V30 18 1 1 17
M  V30 19 1 1 18
M  V30 20 1 3 19
M  V30 21 1 4 20
M  V30 22 1 6 21
M  V30 23 1 7 22
M  V30 24 1 9 23
M  V30 25 1 11 24
M  V30 26 1 11 25
M  V30 27 1 11 26
M  V30 28 1 14 27
M  V30 29 1 15 28
M  V30 30 1 15 29
M  V30 31 1 16 30
M  V30 32 1 16 31
M  V30 33 1 16 32
M  V30 END BOND
M  V30 END CTAB
M  END
