
     RDKit          3D

  0  0  0  0  0  0  0  0  0  0999 V3000
M  V30 BEGIN CTAB
M  V30 COUNTS 23 23 0 0 0
M  V30 BEGIN ATOM
M  V30 1 N 1.44773 1.36929 -0.522023 0
M  V30 2 C 1.56152 0.0876088 0.130167 0
M  V30 3 C 0.19182 -0.583437 0.0297642 0
M  V30 4 C 0.264335 -1.92375 0.697679 0
M  V30 5 C -0.242915 -0.741049 -1.39095 0
M  V30 6 O -0.812034 0.513732 -1.6621 0
M  V30 7 C -1.69743 0.683136 -0.596046 0
M  V30 8 C -0.884622 0.272257 0.625092 0
M  V30 9 N -0.390631 1.43803 1.30271 0
M  V30 10 H 1.62822 1.3205 -1.54634 0
M  V30 11 H 1.98564 2.12465 -0.0459366 0
M  V30 12 H 1.92193 0.130873 1.159 0
M  V30 13 H 2.29177 -0.507631 -0.455756 0
M  V30 14 H -0.600263 -2.51507 0.392074 0
M  V30 15 H 1.21743 -2.43076 0.441084 0
M  V30 16 H 0.251135 -1.79071 1.79226 0
M  V30 17 H -1.0479 -1.50491 -1.42839 0
M  V30 18 H 0.589877 -0.964387 -2.08582 0
M  V30 19 H -2.05119 1.72344 -0.505141 0
M  V30 20 H -2.55226 -0.0342597 -0.759048 0
M  V30 21 H -1.53509 -0.364879 1.25705 0
M  V30 22 H -0.795962 2.31151 0.871872 0
M  V30 23 H -0.741123 1.38581 2.29879 0
M  V30 END ATOM
M  V30 BEGIN BOND
M  V30 1 1 1 2
M  V30 2 1 2 3
M  V30 3 1 3 4
M  V30 4 1 3 5
M  V30 5 1 5 6
M  V30 6 1 6 7
M  V30 7 1 7 8
M  V30 8 1 8 9
M  V30 9 1 8 3
M  V30 10 1 1 10
M  V30 11 1 1 11
M  V30 12 1 2 12
M  V30 13 1 2 13
M  V30 14 1 4 14
M  V30 15 1 4 15
M  V30 16 1 4 16
M  V30 17 1 5 17
M  V30 18 1 5 18
M  V30 19 1 7 19
M  V30 20 1 7 20
M  V30 21 1 8 21
M  V30 22 1 9 22
M  V30 23 1 9 23
M  V30 END BOND
M  V30 END CTAB
M  END
