
     RDKit          3D

  0  0  0  0  0  0  0  0  0  0999 V3000
M  V30 BEGIN CTAB
M  V30 COUNTS 30 33 0 0 0
M  V30 BEGIN ATOM
M  V30 1 N -7.83772 -0.476164 -0.872468 0
M  V30 2 C -6.69476 0.274444 -0.50676 0
M  V30 3 N -6.74406 1.56092 -0.05924 0
M  V30 4 N -5.4681 1.8876 0.169422 0
M  V30 5 C -4.67232 0.883502 -0.112262 0
M  V30 6 O -5.41958 -0.100813 -0.524746 0
M  V30 7 C -3.22386 0.836409 0.000499665 0
M  V30 8 C -2.34988 1.80706 0.419461 0
M  V30 9 C -1.04711 1.51486 0.433156 0
M  V30 10 C -0.68035 0.263601 0.026425 0
M  V30 11 S -2.15658 -0.472009 -0.363761 0
M  V30 12 C 0.690884 -0.276606 -0.0408155 0
M  V30 13 C 1.05413 -1.52947 -0.448455 0
M  V30 14 C 2.37178 -1.81709 -0.431729 0
M  V30 15 C 3.22333 -0.83962 -0.0122615 0
M  V30 16 S 2.17747 0.455242 0.349123 0
M  V30 17 C 4.70255 -0.914879 0.0935282 0
M  V30 18 N 5.48156 -1.95534 -0.202305 0
M  V30 19 N 6.72262 -1.54571 0.0525191 0
M  V30 20 C 6.70697 -0.291702 0.4916 0
M  V30 21 O 5.44335 0.0810094 0.509562 0
M  V30 22 N 7.82404 0.527519 0.879217 0
M  V30 23 H -8.16024 -1.30543 -0.310594 0
M  V30 24 H -8.39319 -0.218649 -1.72049 0
M  V30 25 H -2.77394 2.79092 0.727154 0
M  V30 26 H -0.275223 2.24935 0.76006 0
M  V30 27 H 0.264786 -2.24924 -0.771847 0
M  V30 28 H 2.77664 -2.80283 -0.741818 0
M  V30 29 H 8.61398 0.129033 1.41222 0
M  V30 30 H 7.84282 1.53408 0.622865 0
M  V30 END ATOM
M  V30 BEGIN BOND
M  V30 1 1 1 2
M  V30 2 2 2 3
M  V30 3 1 3 4
M  V30 4 2 4 5
M  V30 5 1 5 6
M  V30 6 1 5 7
M  V30 7 2 7 8
M  V30 8 1 8 9
M  V30 9 2 9 10
M  V30 10 1 10 11
M  V30 11 1 10 12
M  V30 12 2 12 13
M  V30 13 1 13 14
M  V30 14 2 14 15
M  V30 15 1 15 16
M  V30 16 1 15 17
M  V30 17 2 17 18
M  V30 18 1 18 19
M  V30 19 2 19 20
M  V30 20 1 20 21
M  V30 21 1 20 22
M  V30 22 1 6 2
M  V30 23 1 11 7
M  V30 24 1 16 12
M  V30 25 1 21 17
M  V30 26 1 1 23
M  V30 27 1 1 24
M  V30 28 1 8 25
M  V30 29 1 9 26
M  V30 30 1 13 27
M  V30 31 1 14 28
M  V30 32 1 22 29
M  V30 33 1 22 30
M  V30 END BOND
M  V30 END CTAB
M  END
