
     RDKit          3D

  0  0  0  0  0  0  0  0  0  0999 V3000
M  V30 BEGIN CTAB
M  V30 COUNTS 56 59 0 0 0
M  V30 BEGIN ATOM
M  V30 1 C 1.86997 1.68305 2.39748 0
M  V30 2 C 3.24746 1.14785 2.05257 0
M  V30 3 C 4.31599 1.37083 2.88871 0
M  V30 4 S 5.57353 0.576824 2.04791 0
M  V30 5 C 4.65268 0.0158898 0.69016 0
M  V30 6 N 3.47263 0.468111 0.973324 0
M  V30 7 C 5.22778 -0.742218 -0.435584 0
M  V30 8 C 4.64822 -1.31388 -1.54463 0
M  V30 9 C 5.49164 -1.89595 -2.42617 0
M  V30 10 C 6.83564 -1.86993 -2.14073 0
M  V30 11 S 6.91358 -1.04811 -0.673968 0
M  V30 12 C 3.13661 -1.30412 -1.72614 0
M  V30 13 O 2.54224 -2.2714 -0.911065 0
M  V30 14 C 1.37798 -2.31077 -0.244042 0
M  V30 15 C 0.440782 -1.30252 -0.22352 0
M  V30 16 C -0.748732 -1.35996 0.464027 0
M  V30 17 N -1.00063 -2.4932 1.16469 0
M  V30 18 C -0.108348 -3.49729 1.16754 0
M  V30 19 N -0.435951 -4.65909 1.92455 0
M  V30 20 N 1.04527 -3.41943 0.489624 0
M  V30 21 C -1.74101 -0.278888 0.478524 0
M  V30 22 C -2.91663 -0.43727 1.20491 0
M  V30 23 C -3.88481 0.54417 1.2563 0
M  V30 24 C -3.73355 1.74302 0.583182 0
M  V30 25 C -4.78946 2.78134 0.653522 0
M  V30 26 C -5.81226 2.65636 -0.43672 0 CFG=2
M  V30 27 N -6.46148 1.36468 -0.347421 0
M  V30 28 C -5.25182 2.90353 -1.78126 0
M  V30 29 O -4.60102 4.0901 -2.08407 0
M  V30 30 O -5.39194 1.98141 -2.64954 0
M  V30 31 C -2.57216 1.90922 -0.139098 0
M  V30 32 C -1.59024 0.911097 -0.18987 0
M  V30 33 C 2.76899 -1.76854 -3.14627 0
M  V30 34 F 3.14429 -3.0575 -3.4112 0
M  V30 35 F 3.36152 -0.953807 -4.10743 0
M  V30 36 F 1.3785 -1.6649 -3.27431 0
M  V30 37 H 1.51842 1.28341 3.35602 0
M  V30 38 H 1.12962 1.46181 1.62718 0
M  V30 39 H 1.94166 2.78774 2.4985 0
M  V30 40 H 4.31922 1.92346 3.8445 0
M  V30 41 H 5.2023 -2.38915 -3.38658 0
M  V30 42 H 7.64701 -2.30429 -2.7643 0
M  V30 43 H 2.72568 -0.297331 -1.59356 0
M  V30 44 H 0.6781 -0.404978 -0.787512 0
M  V30 45 H -1.11208 -4.61978 2.73492 0
M  V30 46 H 0.0241608 -5.55353 1.64056 0
M  V30 47 H -3.05202 -1.3714 1.73912 0
M  V30 48 H -4.80142 0.398059 1.8354 0
M  V30 49 H -4.35835 3.82318 0.582714 0
M  V30 50 H -5.29962 2.76222 1.64095 0
M  V30 51 H -6.63853 3.40729 -0.280873 0
M  V30 52 H -6.72063 1.18638 0.646098 0
M  V30 53 H -5.77863 0.627176 -0.623781 0
M  V30 54 H -4.7466 4.87866 -1.46048 0
M  V30 55 H -2.40342 2.83086 -0.684359 0
M  V30 56 H -0.680113 1.07149 -0.770701 0
M  V30 END ATOM
M  V30 BEGIN BOND
M  V30 1 1 1 2
M  V30 2 2 2 3
M  V30 3 1 3 4
M  V30 4 1 4 5
M  V30 5 2 5 6
M  V30 6 1 5 7
M  V30 7 2 7 8
M  V30 8 1 8 9
M  V30 9 2 9 10
M  V30 10 1 10 11
M  V30 11 1 8 12
M  V30 12 1 12 13
M  V30 13 1 13 14
M  V30 14 2 14 15
M  V30 15 1 15 16
M  V30 16 2 16 17
M  V30 17 1 17 18
M  V30 18 1 18 19
M  V30 19 2 18 20
M  V30 20 1 16 21
M  V30 21 2 21 22
M  V30 22 1 22 23
M  V30 23 2 23 24
M  V30 24 1 24 25
M  V30 25 1 25 26
M  V30 26 1 26 27
M  V30 27 1 26 28
M  V30 28 1 28 29
M  V30 29 2 28 30
M  V30 30 1 24 31
M  V30 31 2 31 32
M  V30 32 1 12 33
M  V30 33 1 33 34
M  V30 34 1 33 35
M  V30 35 1 33 36
M  V30 36 1 6 2
M  V30 37 1 11 7
M  V30 38 1 20 14
M  V30 39 1 32 21
M  V30 40 1 1 37
M  V30 41 1 1 38
M  V30 42 1 1 39
M  V30 43 1 3 40
M  V30 44 1 9 41
M  V30 45 1 10 42
M  V30 46 1 12 43
M  V30 47 1 15 44
M  V30 48 1 19 45
M  V30 49 1 19 46
M  V30 50 1 22 47
M  V30 51 1 23 48
M  V30 52 1 25 49
M  V30 53 1 25 50
M  V30 54 1 26 51 CFG=1
M  V30 55 1 27 52
M  V30 56 1 27 53
M  V30 57 1 29 54
M  V30 58 1 31 55
M  V30 59 1 32 56
M  V30 END BOND
M  V30 END CTAB
M  END
