
     RDKit          3D

  0  0  0  0  0  0  0  0  0  0999 V3000
M  V30 BEGIN CTAB
M  V30 COUNTS 26 27 0 0 0
M  V30 BEGIN ATOM
M  V30 1 N 2.05733 2.21435 0.30194 0
M  V30 2 C 0.994324 1.29413 0.132169 0
M  V30 3 C -0.322446 1.71184 0.22463 0
M  V30 4 C -1.37256 0.829877 0.0621893 0
M  V30 5 C -2.86603 0.973392 0.107082 0
M  V30 6 C -3.24554 -0.449998 0.548024 0
M  V30 7 C -2.30767 -1.24005 -0.337155 0
M  V30 8 C -1.04134 -0.481895 -0.195792 0
M  V30 9 C 0.27182 -0.917479 -0.291609 0
M  V30 10 C 1.3111 -0.0241074 -0.126766 0
M  V30 11 S 2.98741 -0.498775 -0.233293 0
M  V30 12 O 3.62387 -0.265069 1.10743 0
M  V30 13 O 3.73262 0.253706 -1.27229 0
M  V30 14 N 3.07618 -2.2061 -0.565698 0
M  V30 15 H 2.43279 2.71232 -0.534497 0
M  V30 16 H 2.50273 2.43789 1.21296 0
M  V30 17 H -0.551816 2.74821 0.428037 0
M  V30 18 H -3.29945 1.19097 -0.868866 0
M  V30 19 H -3.19287 1.66612 0.881266 0
M  V30 20 H -2.91435 -0.582809 1.58783 0
M  V30 21 H -4.29993 -0.664038 0.365084 0
M  V30 22 H -2.62084 -1.18786 -1.41094 0
M  V30 23 H -2.19735 -2.29 0.00239785 0
M  V30 24 H 0.494076 -1.96817 -0.497735 0
M  V30 25 H 4.04343 -2.48276 -0.831867 0
M  V30 26 H 2.70451 -2.77371 0.205467 0
M  V30 END ATOM
M  V30 BEGIN BOND
M  V30 1 1 1 2
M  V30 2 2 2 3
M  V30 3 1 3 4
M  V30 4 1 4 5
M  V30 5 1 5 6
M  V30 6 1 6 7
M  V30 7 1 7 8
M  V30 8 1 8 9
M  V30 9 2 9 10
M  V30 10 1 10 11
M  V30 11 2 11 12
M  V30 12 2 11 13
M  V30 13 1 11 14
M  V30 14 1 10 2
M  V30 15 2 8 4
M  V30 16 1 1 15
M  V30 17 1 1 16
M  V30 18 1 3 17
M  V30 19 1 5 18
M  V30 20 1 5 19
M  V30 21 1 6 20
M  V30 22 1 6 21
M  V30 23 1 7 22
M  V30 24 1 7 23
M  V30 25 1 9 24
M  V30 26 1 14 25
M  V30 27 1 14 26
M  V30 END BOND
M  V30 END CTAB
M  END
