
     RDKit          3D

  0  0  0  0  0  0  0  0  0  0999 V3000
M  V30 BEGIN CTAB
M  V30 COUNTS 24 24 0 0 0
M  V30 BEGIN ATOM
M  V30 1 N -2.72749 -2.17289 -1.98021 0
M  V30 2 C -1.93688 -2.04613 -1.15401 0
M  V30 3 C -0.929547 -1.86883 -0.12063 0
M  V30 4 C -0.656884 -0.455969 0.107268 0
M  V30 5 C -1.48538 0.399022 0.805919 0
M  V30 6 N -2.67389 -0.117897 1.34402 0
M  V30 7 C -1.22241 1.73512 1.01227 0
M  V30 8 C -0.0556083 2.27093 0.491753 0
M  V30 9 C 0.796249 1.44518 -0.212446 0
M  V30 10 C 0.500808 0.0947069 -0.404103 0
M  V30 11 O 1.44913 -0.608275 -1.12976 0
M  V30 12 C 2.56441 -1.26546 -0.56674 0
M  V30 13 N 2.00607 2.01791 -0.746935 0
M  V30 14 H 0.0216978 -2.38383 -0.349074 0
M  V30 15 H -1.26768 -2.30762 0.865027 0
M  V30 16 H -3.572 0.0991684 0.852481 0
M  V30 17 H -2.6605 -0.697289 2.20272 0
M  V30 18 H -1.89568 2.38776 1.56802 0
M  V30 19 H 0.138756 3.32894 0.662528 0
M  V30 20 H 3.4385 -1.24723 -1.27957 0
M  V30 21 H 2.40102 -2.33447 -0.355734 0
M  V30 22 H 2.9504 -0.708328 0.335136 0
M  V30 23 H 1.98567 2.20534 -1.77693 0
M  V30 24 H 2.83123 2.23016 -0.170993 0
M  V30 END ATOM
M  V30 BEGIN BOND
M  V30 1 3 1 2
M  V30 2 1 2 3
M  V30 3 1 3 4
M  V30 4 2 4 5
M  V30 5 1 5 6
M  V30 6 1 5 7
M  V30 7 2 7 8
M  V30 8 1 8 9
M  V30 9 2 9 10
M  V30 10 1 10 11
M  V30 11 1 11 12
M  V30 12 1 9 13
M  V30 13 1 10 4
M  V30 14 1 3 14
M  V30 15 1 3 15
M  V30 16 1 6 16
M  V30 17 1 6 17
M  V30 18 1 7 18
M  V30 19 1 8 19
M  V30 20 1 12 20
M  V30 21 1 12 21
M  V30 22 1 12 22
M  V30 23 1 13 23
M  V30 24 1 13 24
M  V30 END BOND
M  V30 END CTAB
M  END
