
     RDKit          3D

  0  0  0  0  0  0  0  0  0  0999 V3000
M  V30 BEGIN CTAB
M  V30 COUNTS 19 19 0 0 0
M  V30 BEGIN ATOM
M  V30 1 N 3.06802 0.547455 0.0299889 0
M  V30 2 C 1.72828 0.0567429 -0.0148996 0
M  V30 3 C 1.48064 -1.30617 -0.148026 0
M  V30 4 C 0.159236 -1.73772 -0.187157 0
M  V30 5 C -0.896225 -0.847713 -0.0972636 0
M  V30 6 C -0.649314 0.503305 0.0347021 0
M  V30 7 C 0.663971 0.933299 0.0736985 0
M  V30 8 Cl 1.05569 2.65163 0.241336 0
M  V30 9 C -1.76106 1.46774 0.132056 0
M  V30 10 F -2.57414 1.43904 -0.974946 0
M  V30 11 F -1.23895 2.74026 0.353512 0
M  V30 12 F -2.56385 1.20404 1.2462 0
M  V30 13 N -2.24929 -1.28751 -0.13713 0
M  V30 14 H 3.55219 0.430326 0.969248 0
M  V30 15 H 3.54904 0.986901 -0.779056 0
M  V30 16 H 2.28698 -2.02402 -0.220433 0
M  V30 17 H -0.0748284 -2.79374 -0.290229 0
M  V30 18 H -2.93755 -1.02171 -0.853333 0
M  V30 19 H -2.59882 -1.94216 0.621727 0
M  V30 END ATOM
M  V30 BEGIN BOND
M  V30 1 1 1 2
M  V30 2 2 2 3
M  V30 3 1 3 4
M  V30 4 2 4 5
M  V30 5 1 5 6
M  V30 6 2 6 7
M  V30 7 1 7 8
M  V30 8 1 6 9
M  V30 9 1 9 10
M  V30 10 1 9 11
M  V30 11 1 9 12
M  V30 12 1 5 13
M  V30 13 1 7 2
M  V30 14 1 1 14
M  V30 15 1 1 15
M  V30 16 1 3 16
M  V30 17 1 4 17
M  V30 18 1 13 18
M  V30 19 1 13 19
M  V30 END BOND
M  V30 END CTAB
M  END
