
     RDKit          3D

  0  0  0  0  0  0  0  0  0  0999 V3000
M  V30 BEGIN CTAB
M  V30 COUNTS 42 41 0 0 0
M  V30 BEGIN ATOM
M  V30 1 N 5.53389 1.22826 -0.827256 0
M  V30 2 C 5.12951 0.0367667 -0.164108 0
M  V30 3 N 5.4184 -0.101803 1.0798 0
M  V30 4 C 4.4005 -0.980759 -0.942646 0
M  V30 5 C 3.14722 -0.418586 -1.51346 0
M  V30 6 C 2.16425 0.093923 -0.455291 0
M  V30 7 C 1.72967 -0.958972 0.462564 0
M  V30 8 C 0.808857 -0.608446 1.55092 0
M  V30 9 C -0.582045 -0.179999 1.36039 0
M  V30 10 C -0.806331 1.02114 0.557505 0
M  V30 11 C -2.2773 1.45322 0.531487 0
M  V30 12 C -3.16341 0.399138 -0.0376574 0
M  V30 13 C -4.59685 0.887528 -0.0343656 0
M  V30 14 C -5.52036 -0.117399 -0.588108 0
M  V30 15 N -5.62831 -1.38415 0.0210793 0
M  V30 16 N -6.24371 0.143731 -1.6365 0
M  V30 17 H 5.89294 1.24292 -1.8047 0
M  V30 18 H 5.46681 2.12544 -0.309416 0
M  V30 19 H 5.12566 -0.971899 1.57297 0
M  V30 20 H 5.05748 -1.24457 -1.8088 0
M  V30 21 H 4.2584 -1.92863 -0.387545 0
M  V30 22 H 3.41882 0.436769 -2.16636 0
M  V30 23 H 2.64176 -1.161 -2.16511 0
M  V30 24 H 2.73713 0.867616 0.144117 0
M  V30 25 H 1.431 0.658036 -1.01318 0
M  V30 26 H 2.66401 -1.36824 0.980127 0
M  V30 27 H 1.31499 -1.80858 -0.175048 0
M  V30 28 H 0.772657 -1.53763 2.25815 0
M  V30 29 H 1.36455 0.12299 2.25128 0
M  V30 30 H -1.13416 -1.08483 0.935918 0
M  V30 31 H -1.06244 0.0237747 2.38297 0
M  V30 32 H -0.559182 0.745247 -0.520136 0
M  V30 33 H -0.171814 1.85015 0.837093 0
M  V30 34 H -2.59223 1.74859 1.54826 0
M  V30 35 H -2.32494 2.35502 -0.108406 0
M  V30 36 H -2.91565 0.1738 -1.09554 0
M  V30 37 H -3.15094 -0.551556 0.518557 0
M  V30 38 H -4.63626 1.79286 -0.657547 0
M  V30 39 H -4.89055 1.20494 0.995956 0
M  V30 40 H -5.85812 -1.42491 1.03514 0
M  V30 41 H -5.47141 -2.23434 -0.577822 0
M  V30 42 H -6.89248 -0.545551 -2.03529 0
M  V30 END ATOM
M  V30 BEGIN BOND
M  V30 1 1 1 2
M  V30 2 2 2 3 CFG=2
M  V30 3 1 2 4
M  V30 4 1 4 5
M  V30 5 1 5 6
M  V30 6 1 6 7
M  V30 7 1 7 8
M  V30 8 1 8 9
M  V30 9 1 9 10
M  V30 10 1 10 11
M  V30 11 1 11 12
M  V30 12 1 12 13
M  V30 13 1 13 14
M  V30 14 1 14 15
M  V30 15 2 14 16 CFG=2
M  V30 16 1 1 17
M  V30 17 1 1 18
M  V30 18 1 3 19
M  V30 19 1 4 20
M  V30 20 1 4 21
M  V30 21 1 5 22
M  V30 22 1 5 23
M  V30 23 1 6 24
M  V30 24 1 6 25
M  V30 25 1 7 26
M  V30 26 1 7 27
M  V30 27 1 8 28
M  V30 28 1 8 29
M  V30 29 1 9 30
M  V30 30 1 9 31
M  V30 31 1 10 32
M  V30 32 1 10 33
M  V30 33 1 11 34
M  V30 34 1 11 35
M  V30 35 1 12 36
M  V30 36 1 12 37
M  V30 37 1 13 38
M  V30 38 1 13 39
M  V30 39 1 15 40
M  V30 40 1 15 41
M  V30 41 1 16 42
M  V30 END BOND
M  V30 END CTAB
M  END
