
     RDKit          3D

  0  0  0  0  0  0  0  0  0  0999 V3000
M  V30 BEGIN CTAB
M  V30 COUNTS 51 51 0 0 0
M  V30 BEGIN ATOM
M  V30 1 N -1.77521 2.22091 0.500729 0
M  V30 2 C -2.0529 1.77026 -0.790717 0
M  V30 3 C -1.93579 0.279786 -0.869228 0
M  V30 4 C -2.87301 -0.424033 0.058327 0
M  V30 5 C -2.78792 -1.9382 0.00433829 0
M  V30 6 C -4.10892 -2.54741 0.487356 0
M  V30 7 C -5.20006 -2.31609 -0.552124 0
M  V30 8 C -4.80176 -1.03474 -1.30226 0
M  V30 9 C -4.32016 -0.0974391 -0.22367 0
M  V30 10 N -0.543532 -0.0330653 -0.666213 0
M  V30 11 C 0.279793 -0.898211 -1.34444 0
M  V30 12 O -0.0818531 -1.65263 -2.34032 0
M  V30 13 C 1.73139 -1.09848 -1.02854 0
M  V30 14 N 2.07049 -0.268598 0.0296911 0
M  V30 15 C 2.4011 0.542204 1.06545 0
M  V30 16 O 1.9984 0.574342 2.26514 0
M  V30 17 C 3.46513 1.59427 0.675261 0 CFG=2
M  V30 18 C 4.61975 0.779589 0.108687 0
M  V30 19 C 5.23381 -0.141605 1.11931 0
M  V30 20 C 5.64227 1.59719 -0.591659 0
M  V30 21 N 3.8744 2.33816 1.81158 0
M  V30 22 H -2.14516 3.06499 0.76673 0
M  V30 23 H -1.58144 1.55211 1.16392 0
M  V30 24 H -1.2299 2.19547 -1.42955 0
M  V30 25 H -2.97644 2.18823 -1.23972 0
M  V30 26 H -2.16367 -0.0999645 -1.91448 0
M  V30 27 H -2.63432 -0.141514 1.12259 0
M  V30 28 H -2.02666 -2.34538 0.697009 0
M  V30 29 H -2.55112 -2.33491 -1.00517 0
M  V30 30 H -3.96482 -3.61633 0.693973 0
M  V30 31 H -4.35151 -2.05051 1.46684 0
M  V30 32 H -5.30332 -3.16722 -1.22409 0
M  V30 33 H -6.13855 -2.05071 0.00250623 0
M  V30 34 H -3.9546 -1.25486 -1.99338 0
M  V30 35 H -5.66938 -0.59741 -1.8377 0
M  V30 36 H -4.85722 -0.232375 0.73132 0
M  V30 37 H -4.46837 0.961367 -0.511241 0
M  V30 38 H -0.0940941 0.522236 0.145364 0
M  V30 39 H 2.22868 -0.736823 -2.00351 0
M  V30 40 H 1.95323 -2.18391 -0.915552 0
M  V30 41 H 1.20402 -0.952604 0.871742 0
M  V30 42 H 3.05392 2.23146 -0.105819 0
M  V30 43 H 4.1561 0.0531894 -0.669419 0
M  V30 44 H 4.83889 0.0350683 2.15205 0
M  V30 45 H 5.12926 -1.20693 0.806253 0
M  V30 46 H 6.34353 0.0696626 1.10598 0
M  V30 47 H 5.2429 1.79791 -1.64571 0
M  V30 48 H 6.60257 1.04193 -0.738708 0
M  V30 49 H 5.78586 2.57199 -0.114878 0
M  V30 50 H 4.79763 2.06721 2.21237 0
M  V30 51 H 3.9386 3.37242 1.58148 0
M  V30 END ATOM
M  V30 BEGIN BOND
M  V30 1 1 1 2
M  V30 2 1 2 3
M  V30 3 1 3 4
M  V30 4 1 4 5
M  V30 5 1 5 6
M  V30 6 1 6 7
M  V30 7 1 7 8
M  V30 8 1 8 9
M  V30 9 1 3 10
M  V30 10 1 10 11
M  V30 11 2 11 12
M  V30 12 1 11 13
M  V30 13 1 13 14
M  V30 14 1 14 15
M  V30 15 2 15 16
M  V30 16 1 15 17
M  V30 17 1 17 18
M  V30 18 1 18 19
M  V30 19 1 18 20
M  V30 20 1 17 21
M  V30 21 1 9 4
M  V30 22 1 1 22
M  V30 23 1 1 23
M  V30 24 1 2 24
M  V30 25 1 2 25
M  V30 26 1 3 26
M  V30 27 1 4 27
M  V30 28 1 5 28
M  V30 29 1 5 29
M  V30 30 1 6 30
M  V30 31 1 6 31
M  V30 32 1 7 32
M  V30 33 1 7 33
M  V30 34 1 8 34
M  V30 35 1 8 35
M  V30 36 1 9 36
M  V30 37 1 9 37
M  V30 38 1 10 38
M  V30 39 1 13 39
M  V30 40 1 13 40
M  V30 41 1 14 41
M  V30 42 1 17 42 CFG=3
M  V30 43 1 18 43
M  V30 44 1 19 44
M  V30 45 1 19 45
M  V30 46 1 19 46
M  V30 47 1 20 47
M  V30 48 1 20 48
M  V30 49 1 20 49
M  V30 50 1 21 50
M  V30 51 1 21 51
M  V30 END BOND
M  V30 END CTAB
M  END
