
     RDKit          3D

  0  0  0  0  0  0  0  0  0  0999 V3000
M  V30 BEGIN CTAB
M  V30 COUNTS 21 22 0 0 0
M  V30 BEGIN ATOM
M  V30 1 O 2.54243 2.58631 -0.0220062 0
M  V30 2 C 2.24992 1.36102 -0.0135264 0
M  V30 3 N 3.18664 0.292571 -0.00675648 0
M  V30 4 C 2.45122 -0.940862 0.00195012 0
M  V30 5 C 1.01168 -0.568417 0.00023066 0
M  V30 6 C 0.900064 0.813176 -0.0091029 0
M  V30 7 C -0.357331 1.41177 -0.0125055 0
M  V30 8 C -1.51277 0.661515 -0.00678315 0
M  V30 9 N -2.81607 1.22525 -0.00990524 0
M  V30 10 C -1.42443 -0.728311 0.00262383 0
M  V30 11 C -0.159761 -1.29233 0.00578335 0
M  V30 12 N -2.58266 -1.53533 0.0087297 0
M  V30 13 H 4.22507 0.422517 -0.00814721 0
M  V30 14 H 2.73671 -1.48308 0.948931 0
M  V30 15 H 2.7239 -1.53951 -0.901928 0
M  V30 16 H -0.448286 2.47651 -0.019722 0
M  V30 17 H -3.3734 1.35912 -0.890467 0
M  V30 18 H -3.2262 1.51348 0.897948 0
M  V30 19 H -0.119527 -2.37783 0.0131481 0
M  V30 20 H -2.73633 -2.2175 -0.745569 0
M  V30 21 H -3.27089 -1.44007 0.767074 0
M  V30 END ATOM
M  V30 BEGIN BOND
M  V30 1 2 1 2
M  V30 2 1 2 3
M  V30 3 1 3 4
M  V30 4 1 4 5
M  V30 5 2 5 6
M  V30 6 1 6 7
M  V30 7 2 7 8
M  V30 8 1 8 9
M  V30 9 1 8 10
M  V30 10 2 10 11
M  V30 11 1 10 12
M  V30 12 1 6 2
M  V30 13 1 11 5
M  V30 14 1 3 13
M  V30 15 1 4 14
M  V30 16 1 4 15
M  V30 17 1 7 16
M  V30 18 1 9 17
M  V30 19 1 9 18
M  V30 20 1 11 19
M  V30 21 1 12 20
M  V30 22 1 12 21
M  V30 END BOND
M  V30 END CTAB
M  END
