
     RDKit          3D

  0  0  0  0  0  0  0  0  0  0999 V3000
M  V30 BEGIN CTAB
M  V30 COUNTS 39 42 0 0 0
M  V30 BEGIN ATOM
M  V30 1 N 0.435325 5.53638 -0.350656 0
M  V30 2 C 0.148317 4.40983 -0.31447 0
M  V30 3 C -0.199193 3.01646 -0.257965 0
M  V30 4 C -1.50042 2.51431 -0.363644 0
M  V30 5 N -2.66809 3.30214 -0.538278 0
M  V30 6 N -1.36822 1.19527 -0.261242 0
M  V30 7 C -0.0585641 0.84153 -0.0975603 0
M  V30 8 C 0.705637 1.98334 -0.0922 0
M  V30 9 N 2.03837 1.96889 0.0534353 0
M  V30 10 C 2.65095 0.769621 0.20138 0
M  V30 11 C 4.00101 0.658758 0.358546 0
M  V30 12 C 4.66397 -0.582636 0.518269 0
M  V30 13 N 6.07087 -0.544171 0.63878 0 CHG=1
M  V30 14 O 6.80013 -1.24996 1.31032 0
M  V30 15 O 6.74342 0.463998 -0.0809044 0 CHG=-1
M  V30 16 C 3.94928 -1.74044 0.519277 0
M  V30 17 C 2.55002 -1.60898 0.355138 0
M  V30 18 C 1.92497 -0.400823 0.202056 0
M  V30 19 N 0.571404 -0.325824 0.0499696 0
M  V30 20 N 4.4713 -3.04945 0.639033 0 CHG=1
M  V30 21 O 5.39543 -3.44513 1.3003 0
M  V30 22 O 3.79236 -4.04784 -0.0962493 0 CHG=-1
M  V30 23 C -2.4178 0.241481 -0.311464 0
M  V30 24 C -3.09329 -0.108529 -1.45939 0
M  V30 25 C -4.101 -1.07161 -1.3947 0
M  V30 26 C -4.4418 -1.68269 -0.220751 0
M  V30 27 C -3.76371 -1.32854 0.92331 0
M  V30 28 C -2.76755 -0.384002 0.888715 0
M  V30 29 N -5.46901 -2.65942 -0.195894 0
M  V30 30 H -2.6118 4.32991 -0.673733 0
M  V30 31 H -3.60385 2.86052 -0.533735 0
M  V30 32 H 4.59676 1.56243 0.361621 0
M  V30 33 H 1.97407 -2.50881 0.352712 0
M  V30 34 H -2.82188 0.375725 -2.38771 0
M  V30 35 H -4.61265 -1.32574 -2.31473 0
M  V30 36 H -4.01612 -1.79419 1.85106 0
M  V30 37 H -2.23141 -0.101554 1.79018 0
M  V30 38 H -6.34856 -2.49401 0.329757 0
M  V30 39 H -5.38869 -3.57625 -0.698595 0
M  V30 END ATOM
M  V30 BEGIN BOND
M  V30 1 3 1 2
M  V30 2 1 2 3
M  V30 3 2 3 4
M  V30 4 1 4 5
M  V30 5 1 4 6
M  V30 6 1 6 7
M  V30 7 2 7 8
M  V30 8 1 8 9
M  V30 9 2 9 10
M  V30 10 1 10 11
M  V30 11 2 11 12
M  V30 12 1 12 13
M  V30 13 2 13 14
M  V30 14 1 13 15
M  V30 15 1 12 16
M  V30 16 2 16 17
M  V30 17 1 17 18
M  V30 18 2 18 19
M  V30 19 1 16 20
M  V30 20 2 20 21
M  V30 21 1 20 22
M  V30 22 1 6 23
M  V30 23 2 23 24
M  V30 24 1 24 25
M  V30 25 2 25 26
M  V30 26 1 26 27
M  V30 27 2 27 28
M  V30 28 1 26 29
M  V30 29 1 8 3
M  V30 30 1 18 10
M  V30 31 1 28 23
M  V30 32 1 19 7
M  V30 33 1 5 30
M  V30 34 1 5 31
M  V30 35 1 11 32
M  V30 36 1 17 33
M  V30 37 1 24 34
M  V30 38 1 25 35
M  V30 39 1 27 36
M  V30 40 1 28 37
M  V30 41 1 29 38
M  V30 42 1 29 39
M  V30 END BOND
M  V30 END CTAB
M  END
