
     RDKit          3D

  0  0  0  0  0  0  0  0  0  0999 V3000
M  V30 BEGIN CTAB
M  V30 COUNTS 32 33 0 0 0
M  V30 BEGIN ATOM
M  V30 1 N 3.03755 1.47729 1.16324 0
M  V30 2 C 1.78748 1.15999 0.552023 0
M  V30 3 C 1.71402 -0.198766 -0.0204248 0
M  V30 4 C 2.78019 -1.05628 0.0228414 0
M  V30 5 C 2.70756 -2.35097 -0.505159 0
M  V30 6 C 1.50585 -2.73146 -1.0767 0
M  V30 7 C 0.437394 -1.8742 -1.12214 0
M  V30 8 C 0.536969 -0.598439 -0.593747 0
M  V30 9 C -0.63129 0.294094 -0.701964 0
M  V30 10 C -1.63628 0.189227 0.243329 0
M  V30 11 C -1.47334 -0.752515 1.39699 0
M  V30 12 N -2.59339 -0.696418 2.27464 0
M  V30 13 C -2.77608 0.954469 0.150999 0
M  V30 14 C -2.92279 1.8435 -0.901689 0
M  V30 15 C -1.90655 1.93921 -1.84278 0
M  V30 16 C -0.754136 1.16107 -1.74315 0
M  V30 17 H 3.88169 1.23318 0.655598 0
M  V30 18 H 2.99804 2.45548 1.50943 0
M  V30 19 H 1.56882 1.88097 -0.271994 0
M  V30 20 H 0.981723 1.30166 1.30251 0
M  V30 21 H 3.70698 -0.758881 0.473545 0
M  V30 22 H 3.57222 -3.01967 -0.466967 0
M  V30 23 H 1.43421 -3.75216 -1.50016 0
M  V30 24 H -0.506487 -2.18332 -1.57513 0
M  V30 25 H -0.559211 -0.444364 1.9892 0
M  V30 26 H -1.35378 -1.79202 1.01768 0
M  V30 27 H -2.63595 0.159343 2.85396 0
M  V30 28 H -3.48009 -1.06341 1.94655 0
M  V30 29 H -3.53147 0.838141 0.911066 0
M  V30 30 H -3.82144 2.44245 -0.971041 0
M  V30 31 H -2.0453 2.63756 -2.64511 0
M  V30 32 H -0.0231148 1.3052 -2.52543 0
M  V30 END ATOM
M  V30 BEGIN BOND
M  V30 1 1 1 2
M  V30 2 1 2 3
M  V30 3 2 3 4
M  V30 4 1 4 5
M  V30 5 2 5 6
M  V30 6 1 6 7
M  V30 7 2 7 8
M  V30 8 1 8 9
M  V30 9 2 9 10
M  V30 10 1 10 11
M  V30 11 1 11 12
M  V30 12 1 10 13
M  V30 13 2 13 14
M  V30 14 1 14 15
M  V30 15 2 15 16
M  V30 16 1 8 3
M  V30 17 1 16 9
M  V30 18 1 1 17
M  V30 19 1 1 18
M  V30 20 1 2 19
M  V30 21 1 2 20
M  V30 22 1 4 21
M  V30 23 1 5 22
M  V30 24 1 6 23
M  V30 25 1 7 24
M  V30 26 1 11 25
M  V30 27 1 11 26
M  V30 28 1 12 27
M  V30 29 1 12 28
M  V30 30 1 13 29
M  V30 31 1 14 30
M  V30 32 1 15 31
M  V30 33 1 16 32
M  V30 END BOND
M  V30 END CTAB
M  END
