
     RDKit          3D

  0  0  0  0  0  0  0  0  0  0999 V3000
M  V30 BEGIN CTAB
M  V30 COUNTS 36 36 0 0 0
M  V30 BEGIN ATOM
M  V30 1 C 2.84589 2.19528 0.667311 0
M  V30 2 N 1.76536 1.66003 -0.0985243 0
M  V30 3 P 1.20941 0.108618 0.459911 0
M  V30 4 N 2.24561 -0.586124 1.6692 0
M  V30 5 C 3.3487 -1.31714 1.14222 0
M  V30 6 N -0.226453 0.258463 1.11875 0
M  V30 7 P -1.64783 0.394909 0.139545 0
M  V30 8 N -1.57284 1.91961 -0.698788 0
M  V30 9 C -2.67774 2.13637 -1.58719 0
M  V30 10 N -3.02753 0.316997 1.22869 0
M  V30 11 C -2.77955 -0.626589 2.30178 0
M  V30 12 N -1.64097 -0.777479 -0.887722 0
M  V30 13 P -0.210415 -1.54998 -1.45971 0
M  V30 14 N -0.283183 -3.23645 -0.972754 0
M  V30 15 N -0.188202 -1.42137 -3.20163 0
M  V30 16 N 1.09827 -0.944799 -0.893487 0
M  V30 17 H 2.42793 3.02446 1.29579 0
M  V30 18 H 3.34384 1.45141 1.30138 0
M  V30 19 H 3.64206 2.62616 0.00566885 0
M  V30 20 H 2.01484 1.6659 -1.11605 0
M  V30 21 H 2.44201 0.0228641 2.46727 0
M  V30 22 H 4.17349 -1.33568 1.89584 0
M  V30 23 H 3.73218 -0.935942 0.188661 0
M  V30 24 H 3.03327 -2.38682 1.03743 0
M  V30 25 H -1.46272 2.6664 0.00942619 0
M  V30 26 H -3.14823 3.12511 -1.3853 0
M  V30 27 H -3.44333 1.35648 -1.39633 0
M  V30 28 H -2.33874 2.16256 -2.64031 0
M  V30 29 H -3.86475 0.0408858 0.693437 0
M  V30 30 H -2.87474 -0.179742 3.30475 0
M  V30 31 H -1.74869 -1.05444 2.24643 0
M  V30 32 H -3.49908 -1.48221 2.27688 0
M  V30 33 H -0.145301 -3.86792 -1.78612 0
M  V30 34 H 0.454865 -3.46011 -0.264002 0
M  V30 35 H 0.187301 -0.506305 -3.51489 0
M  V30 36 H -1.18475 -1.46339 -3.54756 0
M  V30 END ATOM
M  V30 BEGIN BOND
M  V30 1 1 1 2
M  V30 2 1 2 3
M  V30 3 1 3 4
M  V30 4 1 4 5
M  V30 5 2 3 6
M  V30 6 1 6 7
M  V30 7 1 7 8
M  V30 8 1 8 9
M  V30 9 1 7 10
M  V30 10 1 10 11
M  V30 11 2 7 12
M  V30 12 1 12 13
M  V30 13 1 13 14
M  V30 14 1 13 15
M  V30 15 2 13 16
M  V30 16 1 16 3
M  V30 17 1 1 17
M  V30 18 1 1 18
M  V30 19 1 1 19
M  V30 20 1 2 20
M  V30 21 1 4 21
M  V30 22 1 5 22
M  V30 23 1 5 23
M  V30 24 1 5 24
M  V30 25 1 8 25
M  V30 26 1 9 26
M  V30 27 1 9 27
M  V30 28 1 9 28
M  V30 29 1 10 29
M  V30 30 1 11 30
M  V30 31 1 11 31
M  V30 32 1 11 32
M  V30 33 1 14 33
M  V30 34 1 14 34
M  V30 35 1 15 35
M  V30 36 1 15 36
M  V30 END BOND
M  V30 END CTAB
M  END
