
     RDKit          3D

  0  0  0  0  0  0  0  0  0  0999 V3000
M  V30 BEGIN CTAB
M  V30 COUNTS 57 60 0 0 0
M  V30 BEGIN ATOM
M  V30 1 O 2.50246 -1.7079 1.28306 0
M  V30 2 C 1.82548 -0.673992 1.27885 0
M  V30 3 N 0.4285 -0.626172 1.3527 0
M  V30 4 C -0.423248 -1.72896 1.46287 0
M  V30 5 C 0.000447135 -2.92795 2.03802 0
M  V30 6 C -0.906224 -3.95719 2.24855 0
M  V30 7 C -2.24973 -3.80138 1.88798 0
M  V30 8 C -2.67027 -2.64102 1.32809 0
M  V30 9 C -1.75354 -1.60663 1.11449 0
M  V30 10 N -2.23924 -0.447395 0.438174 0
M  V30 11 C -3.58029 0.00767218 0.742493 0
M  V30 12 C -4.53029 -1.01618 1.22682 0
M  V30 13 C -4.07921 -2.42919 0.955186 0
M  V30 14 C -1.38426 0.214557 -0.528368 0
M  V30 15 C -2.15665 0.29217 -1.79133 0
M  V30 16 N -1.87949 1.28351 -2.64955 0
M  V30 17 C -2.48844 1.44615 -3.81688 0
M  V30 18 N -2.1771 2.50482 -4.70499 0
M  V30 19 N -3.43781 0.554494 -4.14309 0
M  V30 20 C -3.76766 -0.463853 -3.3314 0
M  V30 21 N -3.10784 -0.571366 -2.15626 0
M  V30 22 N -4.7787 -1.35782 -3.75124 0
M  V30 23 N 2.584 0.554279 1.18932 0
M  V30 24 C 4.02644 0.572791 1.11227 0
M  V30 25 C 4.60096 1.25784 2.33711 0
M  V30 26 C 5.76108 2.11849 1.92312 0
M  V30 27 C 5.32234 3.25449 1.01814 0
M  V30 28 C 4.49116 2.70713 -0.12129 0
M  V30 29 C 4.52475 1.20152 -0.168529 0
M  V30 30 H 0.0107491 0.351506 1.39466 0
M  V30 31 H 1.0118 -3.04049 2.32244 0
M  V30 32 H -0.547004 -4.87164 2.69564 0
M  V30 33 H -2.89603 -4.64507 2.08506 0
M  V30 34 H -3.43246 0.76461 1.57642 0
M  V30 35 H -4.00043 0.632496 -0.0782933 0
M  V30 36 H -4.60103 -0.940461 2.3433 0
M  V30 37 H -5.57593 -0.866241 0.878687 0
M  V30 38 H -4.7348 -3.15132 1.48546 0
M  V30 39 H -4.17681 -2.66782 -0.11954 0
M  V30 40 H -0.511938 -0.35042 -0.853285 0
M  V30 41 H -1.21968 1.28465 -0.272026 0
M  V30 42 H -1.62589 3.31728 -4.35066 0
M  V30 43 H -2.47989 2.49936 -5.69936 0
M  V30 44 H -5.4518 -1.0719 -4.48917 0
M  V30 45 H -4.88171 -2.30913 -3.34609 0
M  V30 46 H 2.06741 1.47856 1.1803 0
M  V30 47 H 4.37333 -0.476981 1.10739 0
M  V30 48 H 4.97518 0.478477 3.02013 0
M  V30 49 H 3.82819 1.87451 2.84706 0
M  V30 50 H 6.27301 2.49475 2.82053 0
M  V30 51 H 6.4754 1.479 1.36572 0
M  V30 52 H 6.18148 3.83556 0.659301 0
M  V30 53 H 4.67048 3.94515 1.59752 0
M  V30 54 H 4.95702 3.06473 -1.0621 0
M  V30 55 H 3.46039 3.11537 -0.116006 0
M  V30 56 H 5.54537 0.873548 -0.421716 0
M  V30 57 H 3.84796 0.889003 -0.978866 0
M  V30 END ATOM
M  V30 BEGIN BOND
M  V30 1 2 1 2
M  V30 2 1 2 3
M  V30 3 1 3 4
M  V30 4 2 4 5
M  V30 5 1 5 6
M  V30 6 2 6 7
M  V30 7 1 7 8
M  V30 8 2 8 9
M  V30 9 1 9 10
M  V30 10 1 10 11
M  V30 11 1 11 12
M  V30 12 1 12 13
M  V30 13 1 10 14
M  V30 14 1 14 15
M  V30 15 2 15 16
M  V30 16 1 16 17
M  V30 17 1 17 18
M  V30 18 2 17 19
M  V30 19 1 19 20
M  V30 20 2 20 21
M  V30 21 1 20 22
M  V30 22 1 2 23
M  V30 23 1 23 24
M  V30 24 1 24 25
M  V30 25 1 25 26
M  V30 26 1 26 27
M  V30 27 1 27 28
M  V30 28 1 28 29
M  V30 29 1 9 4
M  V30 30 1 21 15
M  V30 31 1 29 24
M  V30 32 1 13 8
M  V30 33 1 3 30
M  V30 34 1 5 31
M  V30 35 1 6 32
M  V30 36 1 7 33
M  V30 37 1 11 34
M  V30 38 1 11 35
M  V30 39 1 12 36
M  V30 40 1 12 37
M  V30 41 1 13 38
M  V30 42 1 13 39
M  V30 43 1 14 40
M  V30 44 1 14 41
M  V30 45 1 18 42
M  V30 46 1 18 43
M  V30 47 1 22 44
M  V30 48 1 22 45
M  V30 49 1 23 46
M  V30 50 1 24 47
M  V30 51 1 25 48
M  V30 52 1 25 49
M  V30 53 1 26 50
M  V30 54 1 26 51
M  V30 55 1 27 52
M  V30 56 1 27 53
M  V30 57 1 28 54
M  V30 58 1 28 55
M  V30 59 1 29 56
M  V30 60 1 29 57
M  V30 END BOND
M  V30 END CTAB
M  END
