
     RDKit          3D

  0  0  0  0  0  0  0  0  0  0999 V3000
M  V30 BEGIN CTAB
M  V30 COUNTS 20 20 0 0 0
M  V30 BEGIN ATOM
M  V30 1 N -3.23749 -1.28304 0.0287737 0
M  V30 2 N -2.28204 -0.760798 0.889829 0
M  V30 3 C -1.21517 0.00552299 0.373065 0
M  V30 4 C -0.174313 -0.706851 -0.195055 0
M  V30 5 C 0.885147 -0.00572176 -0.71772 0
M  V30 6 S 2.19094 -0.947849 -1.48528 0
M  V30 7 C 3.39295 -1.40397 -0.212403 0
M  V30 8 N 0.876666 1.33274 -0.658028 0
M  V30 9 C -0.131521 2.02008 -0.107336 0
M  V30 10 N -1.18679 1.33848 0.412528 0
M  V30 11 N -0.168465 3.43488 -0.0403569 0
M  V30 12 H -4.11805 -1.5454 0.481451 0
M  V30 13 H -2.82811 -2.04189 -0.593084 0
M  V30 14 H -2.34903 -0.926881 1.90209 0
M  V30 15 H -0.212959 -1.80031 -0.218157 0
M  V30 16 H 3.13185 -1.01917 0.789755 0
M  V30 17 H 3.36088 -2.52213 -0.138212 0
M  V30 18 H 4.42516 -1.06659 -0.474244 0
M  V30 19 H -0.907762 3.96131 -0.538819 0
M  V30 20 H 0.548112 3.93759 0.501196 0
M  V30 END ATOM
M  V30 BEGIN BOND
M  V30 1 1 1 2
M  V30 2 1 2 3
M  V30 3 2 3 4
M  V30 4 1 4 5
M  V30 5 1 5 6
M  V30 6 1 6 7
M  V30 7 2 5 8
M  V30 8 1 8 9
M  V30 9 2 9 10
M  V30 10 1 9 11
M  V30 11 1 10 3
M  V30 12 1 1 12
M  V30 13 1 1 13
M  V30 14 1 2 14
M  V30 15 1 4 15
M  V30 16 1 7 16
M  V30 17 1 7 17
M  V30 18 1 7 18
M  V30 19 1 11 19
M  V30 20 1 11 20
M  V30 END BOND
M  V30 END CTAB
M  END
