
     RDKit          3D

  0  0  0  0  0  0  0  0  0  0999 V3000
M  V30 BEGIN CTAB
M  V30 COUNTS 46 45 0 0 0
M  V30 BEGIN ATOM
M  V30 1 C 6.67829 -2.0481 2.22416 0
M  V30 2 C 5.61371 -1.62873 1.25739 0
M  V30 3 C 4.68539 -0.583799 1.88438 0
M  V30 4 C 3.61996 -0.208532 0.820251 0
M  V30 5 O 2.91618 -1.32282 0.469662 0
M  V30 6 C 1.97356 -1.27694 -0.481373 0
M  V30 7 C 0.827054 -0.342652 -0.224881 0
M  V30 8 C -0.277873 -0.539961 -1.23342 0
M  V30 9 C -1.46384 0.404956 -0.990404 0
M  V30 10 C -2.44944 0.12673 -2.01511 0
M  V30 11 O -2.66273 -1.02509 -2.53003 0
M  V30 12 N -3.26681 1.18503 -2.52086 0
M  V30 13 N -4.23971 1.00209 -3.50968 0
M  V30 14 C -1.80384 0.4834 0.433316 0
M  V30 15 C -2.95787 1.30999 0.868478 0
M  V30 16 C -4.2988 0.833878 0.502646 0
M  V30 17 O -4.50858 -0.361044 0.19348 0
M  V30 18 N -5.42731 1.70915 0.481451 0
M  V30 19 N -6.70911 1.27617 0.136475 0
M  V30 20 O 1.27228 0.942809 -0.154862 0
M  V30 21 H 7.60931 -1.44616 2.0948 0
M  V30 22 H 6.30586 -1.78957 3.25288 0
M  V30 23 H 6.925 -3.12859 2.15587 0
M  V30 24 H 6.03558 -1.19533 0.325529 0
M  V30 25 H 5.03234 -2.52361 0.953669 0
M  V30 26 H 5.28536 0.303974 2.1538 0
M  V30 27 H 4.19701 -1.08165 2.74414 0
M  V30 28 H 4.17359 0.284267 0.0104958 0
M  V30 29 H 2.96714 0.512716 1.38903 0
M  V30 30 H 2.38097 -1.10095 -1.5138 0
M  V30 31 H 1.5382 -2.32731 -0.556298 0
M  V30 32 H 0.379869 -0.599294 0.770709 0
M  V30 33 H 0.157058 -0.38807 -2.24039 0
M  V30 34 H -0.692 -1.56507 -1.21002 0
M  V30 35 H -1.08119 1.46734 -1.25824 0
M  V30 36 H -3.15717 2.15537 -2.15485 0
M  V30 37 H -3.90547 1.14664 -4.46378 0
M  V30 38 H -5.06814 1.55173 -3.2275 0
M  V30 39 H -0.902089 0.949887 0.953927 0
M  V30 40 H -1.92347 -0.517049 0.931002 0
M  V30 41 H -2.84233 2.39633 0.539394 0
M  V30 42 H -2.85934 1.40895 1.9961 0
M  V30 43 H -5.32191 2.72492 0.730193 0
M  V30 44 H -7.11815 0.824878 1.00491 0
M  V30 45 H -6.57099 0.468983 -0.537691 0
M  V30 46 H 0.934451 1.53015 -0.869016 0
M  V30 END ATOM
M  V30 BEGIN BOND
M  V30 1 1 1 2
M  V30 2 1 2 3
M  V30 3 1 3 4
M  V30 4 1 4 5
M  V30 5 1 5 6
M  V30 6 1 6 7
M  V30 7 1 7 8
M  V30 8 1 8 9
M  V30 9 1 9 10
M  V30 10 2 10 11
M  V30 11 1 10 12
M  V30 12 1 12 13
M  V30 13 1 9 14
M  V30 14 1 14 15
M  V30 15 1 15 16
M  V30 16 2 16 17
M  V30 17 1 16 18
M  V30 18 1 18 19
M  V30 19 1 7 20
M  V30 20 1 1 21
M  V30 21 1 1 22
M  V30 22 1 1 23
M  V30 23 1 2 24
M  V30 24 1 2 25
M  V30 25 1 3 26
M  V30 26 1 3 27
M  V30 27 1 4 28
M  V30 28 1 4 29
M  V30 29 1 6 30
M  V30 30 1 6 31
M  V30 31 1 7 32
M  V30 32 1 8 33
M  V30 33 1 8 34
M  V30 34 1 9 35
M  V30 35 1 12 36
M  V30 36 1 13 37
M  V30 37 1 13 38
M  V30 38 1 14 39
M  V30 39 1 14 40
M  V30 40 1 15 41
M  V30 41 1 15 42
M  V30 42 1 18 43
M  V30 43 1 19 44
M  V30 44 1 19 45
M  V30 45 1 20 46
M  V30 END BOND
M  V30 END CTAB
M  END
