
     RDKit          3D

  0  0  0  0  0  0  0  0  0  0999 V3000
M  V30 BEGIN CTAB
M  V30 COUNTS 25 25 0 0 0
M  V30 BEGIN ATOM
M  V30 1 C 4.07252 -0.618722 0.0674075 0
M  V30 2 O 2.64975 -0.630481 -0.0222486 0
M  V30 3 C 1.90012 0.50199 0.253587 0
M  V30 4 O 2.52908 1.53784 0.58565 0
M  V30 5 C 0.44965 0.517355 0.169936 0
M  V30 6 C -0.266845 1.66138 0.451059 0
M  V30 7 C -1.64536 1.70497 0.379786 0
M  V30 8 N -2.31218 2.91578 0.682857 0
M  V30 9 C -2.32953 0.578959 0.0187949 0
M  V30 10 C -1.64224 -0.587537 -0.270473 0
M  V30 11 C -0.256188 -0.607902 -0.192157 0
M  V30 12 N 0.439232 -1.83206 -0.49732 0
M  V30 13 C -2.33035 -1.84629 -0.669405 0
M  V30 14 F -3.68568 -1.57571 -0.674856 0
M  V30 15 F -1.97788 -2.21601 -1.94657 0
M  V30 16 F -2.12825 -2.86111 0.24616 0
M  V30 17 H 4.40194 -0.00416624 0.941322 0
M  V30 18 H 4.43745 -1.64883 0.233211 0
M  V30 19 H 4.54656 -0.198319 -0.830028 0
M  V30 20 H 0.297907 2.56083 0.740505 0
M  V30 21 H -2.10818 3.78641 0.164814 0
M  V30 22 H -3.02189 2.88029 1.45922 0
M  V30 23 H -3.42204 0.571669 -0.0495789 0
M  V30 24 H 0.889926 -2.41101 0.243024 0
M  V30 25 H 0.512475 -2.17934 -1.4847 0
M  V30 END ATOM
M  V30 BEGIN BOND
M  V30 1 1 1 2
M  V30 2 1 2 3
M  V30 3 2 3 4
M  V30 4 1 3 5
M  V30 5 2 5 6
M  V30 6 1 6 7
M  V30 7 1 7 8
M  V30 8 2 7 9
M  V30 9 1 9 10
M  V30 10 2 10 11
M  V30 11 1 11 12
M  V30 12 1 10 13
M  V30 13 1 13 14
M  V30 14 1 13 15
M  V30 15 1 13 16
M  V30 16 1 11 5
M  V30 17 1 1 17
M  V30 18 1 1 18
M  V30 19 1 1 19
M  V30 20 1 6 20
M  V30 21 1 8 21
M  V30 22 1 8 22
M  V30 23 1 9 23
M  V30 24 1 12 24
M  V30 25 1 12 25
M  V30 END BOND
M  V30 END CTAB
M  END
