
     RDKit          3D

  0  0  0  0  0  0  0  0  0  0999 V3000
M  V30 BEGIN CTAB
M  V30 COUNTS 41 42 0 0 0
M  V30 BEGIN ATOM
M  V30 1 C 6.56728 -2.18467 0.0432701 0
M  V30 2 C 6.33936 -0.827796 -0.564944 0
M  V30 3 O 5.02169 -0.379148 -0.191634 0
M  V30 4 C 4.5756 0.851211 -0.591412 0
M  V30 5 O 5.39282 1.54062 -1.28746 0
M  V30 6 C 3.25278 1.38784 -0.264291 0
M  V30 7 C 2.95253 2.67913 -0.67442 0
M  V30 8 C 1.69426 3.15287 -0.345341 0
M  V30 9 C 0.800549 2.38559 0.344219 0
M  V30 10 C 1.07657 1.08655 0.766191 0
M  V30 11 C 2.3526 0.62241 0.426409 0
M  V30 12 N 0.148957 0.329997 1.50311 0
M  V30 13 C -0.587373 -0.79122 1.10438 0
M  V30 14 O -0.411705 -1.19384 -0.0828711 0
M  V30 15 C -1.50768 -1.42458 2.06585 0
M  V30 16 S -2.95101 -0.398668 2.34974 0
M  V30 17 C -4.07862 -0.344654 0.961507 0
M  V30 18 N -5.1142 -1.23295 0.896358 0
M  V30 19 C -6.00447 -1.27147 -0.109085 0
M  V30 20 N -7.0739 -2.21168 -0.129975 0
M  V30 21 C -5.8523 -0.354414 -1.12907 0
M  V30 22 C -4.81484 0.549374 -1.08284 0
M  V30 23 N -3.96218 0.527574 -0.0422618 0
M  V30 24 N -4.69612 1.46274 -2.15713 0
M  V30 25 H 6.97329 -2.0524 1.09129 0
M  V30 26 H 5.59847 -2.70237 0.191002 0
M  V30 27 H 7.22369 -2.81703 -0.575781 0
M  V30 28 H 7.06771 -0.121016 -0.141149 0
M  V30 29 H 6.34652 -0.852652 -1.66527 0
M  V30 30 H 3.64904 3.29881 -1.22196 0
M  V30 31 H 1.43504 4.1771 -0.661335 0
M  V30 32 H -0.196167 2.76739 0.599318 0
M  V30 33 H 2.60798 -0.401529 0.741327 0
M  V30 34 H -0.00385961 0.670843 2.49793 0
M  V30 35 H -1.87826 -2.3644 1.56178 0
M  V30 36 H -1.06898 -1.70713 3.01928 0
M  V30 37 H -7.41125 -2.5926 -1.02126 0
M  V30 38 H -7.51195 -2.5111 0.75715 0
M  V30 39 H -6.57943 -0.398987 -1.93313 0
M  V30 40 H -3.81572 1.69225 -2.63603 0
M  V30 41 H -5.55674 1.95402 -2.51219 0
M  V30 END ATOM
M  V30 BEGIN BOND
M  V30 1 1 1 2
M  V30 2 1 2 3
M  V30 3 1 3 4
M  V30 4 2 4 5
M  V30 5 1 4 6
M  V30 6 2 6 7
M  V30 7 1 7 8
M  V30 8 2 8 9
M  V30 9 1 9 10
M  V30 10 2 10 11
M  V30 11 1 10 12
M  V30 12 1 12 13
M  V30 13 2 13 14
M  V30 14 1 13 15
M  V30 15 1 15 16
M  V30 16 1 16 17
M  V30 17 2 17 18
M  V30 18 1 18 19
M  V30 19 1 19 20
M  V30 20 2 19 21
M  V30 21 1 21 22
M  V30 22 2 22 23
M  V30 23 1 22 24
M  V30 24 1 11 6
M  V30 25 1 23 17
M  V30 26 1 1 25
M  V30 27 1 1 26
M  V30 28 1 1 27
M  V30 29 1 2 28
M  V30 30 1 2 29
M  V30 31 1 7 30
M  V30 32 1 8 31
M  V30 33 1 9 32
M  V30 34 1 11 33
M  V30 35 1 12 34
M  V30 36 1 15 35
M  V30 37 1 15 36
M  V30 38 1 20 37
M  V30 39 1 20 38
M  V30 40 1 21 39
M  V30 41 1 24 40
M  V30 42 1 24 41
M  V30 END BOND
M  V30 END CTAB
M  END
