
     RDKit          3D

  0  0  0  0  0  0  0  0  0  0999 V3000
M  V30 BEGIN CTAB
M  V30 COUNTS 26 26 0 0 0
M  V30 BEGIN ATOM
M  V30 1 C -2.91658 -0.554058 0.14068 0
M  V30 2 C -2.0645 0.169899 -0.885367 0
M  V30 3 C -1.17198 -0.722094 -1.66312 0
M  V30 4 S 0.0554849 -1.64117 -0.752938 0
M  V30 5 C 1.35739 -0.637913 -0.0828388 0
M  V30 6 C 2.47123 -0.294448 -0.856216 0
M  V30 7 C 3.50665 0.466054 -0.36651 0
M  V30 8 Cl 4.89971 0.892261 -1.3443 0
M  V30 9 C 3.44692 0.908748 0.938603 0
M  V30 10 C 2.35924 0.583475 1.72311 0
M  V30 11 C 1.30812 -0.195786 1.20697 0
M  V30 12 N 0.24638 -0.496592 2.07603 0
M  V30 13 N -2.96843 0.819977 -1.8211 0
M  V30 14 H -2.35785 -1.30303 0.718049 0
M  V30 15 H -3.38458 0.216118 0.793054 0
M  V30 16 H -3.74903 -1.06504 -0.388204 0
M  V30 17 H -1.5336 0.978945 -0.340555 0
M  V30 18 H -0.641394 -0.0658559 -2.41878 0
M  V30 19 H -1.8009 -1.47461 -2.20539 0
M  V30 20 H 2.48157 -0.657785 -1.86901 0
M  V30 21 H 4.27169 1.51396 1.32634 0
M  V30 22 H 2.29597 0.923515 2.74969 0
M  V30 23 H -0.165535 0.225171 2.73956 0
M  V30 24 H -0.209304 -1.44469 2.13101 0
M  V30 25 H -2.379 1.16724 -2.6122 0
M  V30 26 H -3.35768 1.68771 -1.36407 0
M  V30 END ATOM
M  V30 BEGIN BOND
M  V30 1 1 1 2
M  V30 2 1 2 3
M  V30 3 1 3 4
M  V30 4 1 4 5
M  V30 5 2 5 6
M  V30 6 1 6 7
M  V30 7 1 7 8
M  V30 8 2 7 9
M  V30 9 1 9 10
M  V30 10 2 10 11
M  V30 11 1 11 12
M  V30 12 1 2 13
M  V30 13 1 11 5
M  V30 14 1 1 14
M  V30 15 1 1 15
M  V30 16 1 1 16
M  V30 17 1 2 17
M  V30 18 1 3 18
M  V30 19 1 3 19
M  V30 20 1 6 20
M  V30 21 1 9 21
M  V30 22 1 10 22
M  V30 23 1 12 23
M  V30 24 1 12 24
M  V30 25 1 13 25
M  V30 26 1 13 26
M  V30 END BOND
M  V30 END CTAB
M  END
