
     RDKit          3D

  0  0  0  0  0  0  0  0  0  0999 V3000
M  V30 BEGIN CTAB
M  V30 COUNTS 34 34 0 0 0
M  V30 BEGIN ATOM
M  V30 1 N -1.58771 3.03184 -0.0255978 0
M  V30 2 C -0.611029 1.93529 -0.15873 0
M  V30 3 C -1.37022 0.721544 0.348705 0
M  V30 4 N -0.780223 -0.505327 0.408343 0
M  V30 5 C -1.65627 -1.5427 0.897856 0
M  V30 6 C -2.73548 -2.05796 0.0588442 0
M  V30 7 N -3.77366 -1.21438 -0.412278 0
M  V30 8 C 0.307206 -0.982015 -0.323056 0
M  V30 9 C 1.62664 -0.329451 -0.278781 0
M  V30 10 C 2.29656 -0.0732648 0.889082 0
M  V30 11 O 1.66594 -0.3291 2.1131 0
M  V30 12 C 3.56885 0.443175 0.827277 0
M  V30 13 C 4.20681 0.719665 -0.356865 0
M  V30 14 C 3.53677 0.46455 -1.53951 0
M  V30 15 C 2.2578 -0.0537294 -1.47965 0
M  V30 16 H -1.18615 3.95918 -0.0913643 0
M  V30 17 H -2.4875 2.81806 -0.433643 0
M  V30 18 H 0.190244 2.2115 0.550491 0
M  V30 19 H -0.33364 1.89655 -1.20648 0
M  V30 20 H -1.60325 1.03461 1.43946 0
M  V30 21 H -2.3767 0.785658 -0.112263 0
M  V30 22 H -2.07868 -1.15392 1.84705 0
M  V30 23 H -1.01388 -2.40879 1.24751 0
M  V30 24 H -2.39099 -2.65986 -0.819043 0
M  V30 25 H -3.2617 -2.85218 0.691723 0
M  V30 26 H -3.50228 -0.857555 -1.38545 0
M  V30 27 H -4.60853 -1.84369 -0.643397 0
M  V30 28 H 0.0100454 -1.11826 -1.44033 0
M  V30 29 H 0.525024 -2.04159 0.0100934 0
M  V30 30 H 2.11082 -0.145422 2.99231 0
M  V30 31 H 4.08902 0.631496 1.76212 0
M  V30 32 H 5.20522 1.12321 -0.407528 0
M  V30 33 H 3.98037 0.645726 -2.51803 0
M  V30 34 H 1.78058 -0.252859 -2.45196 0
M  V30 END ATOM
M  V30 BEGIN BOND
M  V30 1 1 1 2
M  V30 2 1 2 3
M  V30 3 1 3 4
M  V30 4 1 4 5
M  V30 5 1 5 6
M  V30 6 1 6 7
M  V30 7 1 4 8
M  V30 8 1 8 9
M  V30 9 2 9 10
M  V30 10 1 10 11
M  V30 11 1 10 12
M  V30 12 2 12 13
M  V30 13 1 13 14
M  V30 14 2 14 15
M  V30 15 1 15 9
M  V30 16 1 1 16
M  V30 17 1 1 17
M  V30 18 1 2 18
M  V30 19 1 2 19
M  V30 20 1 3 20
M  V30 21 1 3 21
M  V30 22 1 5 22
M  V30 23 1 5 23
M  V30 24 1 6 24
M  V30 25 1 6 25
M  V30 26 1 7 26
M  V30 27 1 7 27
M  V30 28 1 8 28
M  V30 29 1 8 29
M  V30 30 1 11 30
M  V30 31 1 12 31
M  V30 32 1 13 32
M  V30 33 1 14 33
M  V30 34 1 15 34
M  V30 END BOND
M  V30 END CTAB
M  END
