
     RDKit          3D

  0  0  0  0  0  0  0  0  0  0999 V3000
M  V30 BEGIN CTAB
M  V30 COUNTS 27 28 0 0 0
M  V30 BEGIN ATOM
M  V30 1 N -2.61795 -1.01204 0.697629 0
M  V30 2 N -2.03677 0.0654767 0.0557959 0
M  V30 3 C -2.74822 1.12546 -0.426607 0
M  V30 4 N -4.15056 1.31653 -0.365698 0
M  V30 5 N -1.81683 1.93561 -0.966559 0
M  V30 6 N -0.616587 1.40423 -0.822653 0
M  V30 7 C -0.7261 0.236145 -0.187324 0
M  V30 8 C 0.378009 -0.718536 0.193379 0
M  V30 9 C 1.2394 -0.02318 1.21747 0
M  V30 10 C 2.24677 0.83627 0.544323 0
M  V30 11 C 3.12573 0.0362658 -0.347849 0
M  V30 12 N 2.52269 -1.0868 -0.962495 0
M  V30 13 C 1.12368 -1.13482 -1.0334 0
M  V30 14 H -3.54138 -1.35181 0.364517 0
M  V30 15 H -2.15587 -1.48194 1.49521 0
M  V30 16 H -4.78339 0.5203 -0.198306 0
M  V30 17 H -4.55431 2.25685 -0.488514 0
M  V30 18 H -0.0919279 -1.58108 0.707541 0
M  V30 19 H 0.559076 0.641877 1.80939 0
M  V30 20 H 1.76353 -0.716776 1.89574 0
M  V30 21 H 2.87928 1.30533 1.35459 0
M  V30 22 H 1.8343 1.68413 -0.0254305 0
M  V30 23 H 3.54316 0.708567 -1.12737 0
M  V30 24 H 4.00364 -0.309975 0.254669 0
M  V30 25 H 3.04281 -1.96106 -0.962226 0
M  V30 26 H 0.805469 -2.17556 -1.27892 0
M  V30 27 H 0.772342 -0.519458 -1.91266 0
M  V30 END ATOM
M  V30 BEGIN BOND
M  V30 1 1 1 2
M  V30 2 1 2 3
M  V30 3 1 3 4
M  V30 4 2 3 5
M  V30 5 1 5 6
M  V30 6 2 6 7
M  V30 7 1 7 8
M  V30 8 1 8 9
M  V30 9 1 9 10
M  V30 10 1 10 11
M  V30 11 1 11 12
M  V30 12 1 12 13
M  V30 13 1 7 2
M  V30 14 1 13 8
M  V30 15 1 1 14
M  V30 16 1 1 15
M  V30 17 1 4 16
M  V30 18 1 4 17
M  V30 19 1 8 18
M  V30 20 1 9 19
M  V30 21 1 9 20
M  V30 22 1 10 21
M  V30 23 1 10 22
M  V30 24 1 11 23
M  V30 25 1 11 24
M  V30 26 1 12 25
M  V30 27 1 13 26
M  V30 28 1 13 27
M  V30 END BOND
M  V30 END CTAB
M  END
