
     RDKit          3D

  0  0  0  0  0  0  0  0  0  0999 V3000
M  V30 BEGIN CTAB
M  V30 COUNTS 31 32 0 0 0
M  V30 BEGIN ATOM
M  V30 1 N -3.82482 1.35361 -0.572761 0
M  V30 2 C -2.58924 0.864871 -0.118592 0 CFG=2
M  V30 3 C -1.67687 0.617058 -1.27667 0
M  V30 4 C -1.15524 -0.797653 -1.34094 0
M  V30 5 C -0.544616 -1.26649 -0.0607245 0 CFG=2
M  V30 6 C -1.29632 -0.736952 1.15869 0
M  V30 7 C -2.71145 -0.4231 0.671737 0
M  V30 8 C 0.897316 -0.887424 0.00928807 0
M  V30 9 N 1.36473 0.367762 -0.0561068 0
M  V30 10 N 2.67489 0.39067 0.0325242 0
M  V30 11 C 3.07767 -0.881326 0.159275 0
M  V30 12 N 1.97754 -1.67563 0.145152 0
M  V30 13 N 4.42171 -1.29402 0.284131 0
M  V30 14 C 3.45019 1.61638 -0.00933698 0
M  V30 15 H -4.55939 1.29676 0.101741 0
M  V30 16 H -3.74924 2.25589 -0.994843 0
M  V30 17 H -2.14887 1.61448 0.600168 0
M  V30 18 H -2.18116 0.816448 -2.25368 0
M  V30 19 H -0.824646 1.32364 -1.21551 0
M  V30 20 H -1.91869 -1.50117 -1.74559 0
M  V30 21 H -0.334657 -0.788065 -2.11224 0
M  V30 22 H -0.615464 -2.38537 0.0213518 0
M  V30 23 H -0.855527 0.237394 1.46968 0
M  V30 24 H -1.28569 -1.44806 1.98261 0
M  V30 25 H -3.41921 -0.343863 1.50607 0
M  V30 26 H -2.99548 -1.24729 -0.0266743 0
M  V30 27 H 5.10641 -0.656303 0.74188 0
M  V30 28 H 4.79279 -2.20838 -0.053457 0
M  V30 29 H 4.46197 1.42686 -0.412359 0
M  V30 30 H 3.4847 2.01224 1.02534 0
M  V30 31 H 2.97664 2.34703 -0.710098 0
M  V30 END ATOM
M  V30 BEGIN BOND
M  V30 1 1 1 2
M  V30 2 1 2 3
M  V30 3 1 3 4
M  V30 4 1 4 5
M  V30 5 1 5 6
M  V30 6 1 6 7
M  V30 7 1 5 8
M  V30 8 2 8 9
M  V30 9 1 9 10
M  V30 10 1 10 11
M  V30 11 2 11 12
M  V30 12 1 11 13
M  V30 13 1 10 14
M  V30 14 1 7 2
M  V30 15 1 12 8
M  V30 16 1 1 15
M  V30 17 1 1 16
M  V30 18 1 2 17 CFG=1
M  V30 19 1 3 18
M  V30 20 1 3 19
M  V30 21 1 4 20
M  V30 22 1 4 21
M  V30 23 1 5 22 CFG=3
M  V30 24 1 6 23
M  V30 25 1 6 24
M  V30 26 1 7 25
M  V30 27 1 7 26
M  V30 28 1 13 27
M  V30 29 1 13 28
M  V30 30 1 14 29
M  V30 31 1 14 30
M  V30 32 1 14 31
M  V30 END BOND
M  V30 END CTAB
M  END
