
     RDKit          3D

  0  0  0  0  0  0  0  0  0  0999 V3000
M  V30 BEGIN CTAB
M  V30 COUNTS 24 24 0 0 0
M  V30 BEGIN ATOM
M  V30 1 C -3.37337 -0.324735 0.248054 0
M  V30 2 C -2.38963 0.754315 0.0783486 0
M  V30 3 O -2.77825 1.93085 -0.0124672 0
M  V30 4 C -0.979853 0.452018 0.0172074 0
M  V30 5 C -0.5341 -0.851954 0.11695 0
M  V30 6 C 0.799107 -1.20211 0.0655005 0
M  V30 7 N 1.22552 -2.54416 0.170223 0
M  V30 8 C 1.71285 -0.191294 -0.0930036 0
M  V30 9 C 1.28885 1.1136 -0.194244 0
M  V30 10 C -0.0397409 1.47511 -0.144209 0
M  V30 11 N -0.466762 2.8278 -0.249958 0
M  V30 12 C 3.18327 -0.512108 -0.156154 0
M  V30 13 F 3.55015 -1.13607 1.03339 0
M  V30 14 F 3.90821 0.647184 -0.351635 0
M  V30 15 F 3.46466 -1.34774 -1.2195 0
M  V30 16 H -3.19875 -1.17984 -0.461176 0
M  V30 17 H -4.41624 0.00720025 0.0692055 0
M  V30 18 H -3.25534 -0.785889 1.26827 0
M  V30 19 H -1.2449 -1.65714 0.242126 0
M  V30 20 H 1.5535 -2.89673 1.08361 0
M  V30 21 H 1.20852 -3.156 -0.649184 0
M  V30 22 H 2.02085 1.90979 -0.319897 0
M  V30 23 H -0.330142 3.45765 0.566723 0
M  V30 24 H -0.908388 3.21025 -1.1082 0
M  V30 END ATOM
M  V30 BEGIN BOND
M  V30 1 1 1 2
M  V30 2 2 2 3
M  V30 3 1 2 4
M  V30 4 2 4 5
M  V30 5 1 5 6
M  V30 6 1 6 7
M  V30 7 2 6 8
M  V30 8 1 8 9
M  V30 9 2 9 10
M  V30 10 1 10 11
M  V30 11 1 8 12
M  V30 12 1 12 13
M  V30 13 1 12 14
M  V30 14 1 12 15
M  V30 15 1 10 4
M  V30 16 1 1 16
M  V30 17 1 1 17
M  V30 18 1 1 18
M  V30 19 1 5 19
M  V30 20 1 7 20
M  V30 21 1 7 21
M  V30 22 1 9 22
M  V30 23 1 11 23
M  V30 24 1 11 24
M  V30 END BOND
M  V30 END CTAB
M  END
