
     RDKit          3D

  0  0  0  0  0  0  0  0  0  0999 V3000
M  V30 BEGIN CTAB
M  V30 COUNTS 34 35 0 0 0
M  V30 BEGIN ATOM
M  V30 1 N 5.86612 1.45409 -1.96882 0
M  V30 2 N 5.0186 0.536081 -1.53514 0
M  V30 3 C 4.16658 -0.38696 -1.09911 0
M  V30 4 O 4.35616 -1.63897 -0.859014 0
M  V30 5 C 2.71703 0.000170685 -0.812848 0
M  V30 6 C 1.94761 -1.2236 -0.39222 0
M  V30 7 C 0.553443 -0.826101 -0.137975 0
M  V30 8 N -0.390458 -0.833185 -1.09107 0
M  V30 9 C -1.68909 -0.471459 -0.837909 0
M  V30 10 S -3.1201 -0.361723 -1.76094 0
M  V30 11 C -4.18735 0.17232 -0.549124 0
M  V30 12 C -3.38625 0.252727 0.558428 0
M  V30 13 C -2.08949 -0.0813395 0.409617 0
M  V30 14 C -1.06296 -0.0909482 1.37299 0
M  V30 15 O -1.28693 0.247144 2.58154 0
M  V30 16 N 0.193527 -0.444073 1.11406 0
M  V30 17 N 1.17179 -0.424034 2.12967 0
M  V30 18 C -3.98095 0.706242 1.88526 0
M  V30 19 C -5.66386 0.48718 -0.634782 0
M  V30 20 H 6.24662 1.37752 -2.91748 0
M  V30 21 H 6.5444 1.84943 -1.29297 0
M  V30 22 H 6.03018 -0.369714 -1.56364 0
M  V30 23 H 2.74383 0.692362 0.0567744 0
M  V30 24 H 2.23838 0.46511 -1.67178 0
M  V30 25 H 1.97325 -2.01122 -1.19423 0
M  V30 26 H 2.42471 -1.70966 0.499655 0
M  V30 27 H 1.57784 0.47267 2.41383 0
M  V30 28 H 1.45671 -1.30886 2.5614 0
M  V30 29 H -4.97253 1.15688 1.74969 0
M  V30 30 H -3.35372 1.52685 2.31775 0
M  V30 31 H -4.08075 -0.151395 2.56406 0
M  V30 32 H -6.08251 -0.0887274 -1.47445 0
M  V30 33 H -6.10922 0.219623 0.340585 0
M  V30 34 H -5.77062 1.57048 -0.761809 0
M  V30 END ATOM
M  V30 BEGIN BOND
M  V30 1 1 1 2
M  V30 2 1 2 3
M  V30 3 2 3 4
M  V30 4 1 3 5
M  V30 5 1 5 6
M  V30 6 1 6 7
M  V30 7 2 7 8
M  V30 8 1 8 9
M  V30 9 1 9 10
M  V30 10 1 10 11
M  V30 11 2 11 12
M  V30 12 1 12 13
M  V30 13 1 13 14
M  V30 14 2 14 15
M  V30 15 1 14 16
M  V30 16 1 16 17
M  V30 17 1 12 18
M  V30 18 1 11 19
M  V30 19 1 16 7
M  V30 20 2 13 9
M  V30 21 1 1 20
M  V30 22 1 1 21
M  V30 23 1 2 22
M  V30 24 1 5 23
M  V30 25 1 5 24
M  V30 26 1 6 25
M  V30 27 1 6 26
M  V30 28 1 17 27
M  V30 29 1 17 28
M  V30 30 1 18 29
M  V30 31 1 18 30
M  V30 32 1 18 31
M  V30 33 1 19 32
M  V30 34 1 19 33
M  V30 35 1 19 34
M  V30 END BOND
M  V30 END CTAB
M  END
