
     RDKit          3D

  0  0  0  0  0  0  0  0  0  0999 V3000
M  V30 BEGIN CTAB
M  V30 COUNTS 44 46 0 0 0
M  V30 BEGIN ATOM
M  V30 1 O 2.76009 -1.43702 1.52069 0
M  V30 2 C 2.47546 -0.558223 0.55787 0
M  V30 3 C 3.53489 0.380579 0.359478 0
M  V30 4 C 3.51401 1.44751 -0.494568 0
M  V30 5 C 4.60103 2.3292 -0.598908 0
M  V30 6 Br 4.54743 3.81174 -1.80028 0
M  V30 7 C 5.73752 2.16782 0.148414 0
M  V30 8 C 5.78343 1.10546 1.01335 0
M  V30 9 C 4.7193 0.240676 1.11635 0
M  V30 10 N 4.86247 -0.841234 2.0465 0
M  V30 11 N 1.21564 -0.737178 -0.0485021 0
M  V30 12 C 0.729828 0.0530461 -1.1031 0
M  V30 13 C -0.599343 -0.406305 -1.70941 0
M  V30 14 N -1.33846 -1.21013 -0.834339 0
M  V30 15 C -0.525033 -2.4303 -0.43801 0
M  V30 16 C 0.424756 -1.84387 0.560477 0
M  V30 17 C -2.57867 -1.13338 -0.219063 0
M  V30 18 O -2.94303 -2.17125 0.521797 0
M  V30 19 C -3.58727 -0.0984557 -0.231295 0
M  V30 20 C -3.46475 1.14756 -0.800842 0
M  V30 21 C -4.46692 2.12889 -0.749048 0
M  V30 22 Br -4.24644 3.83694 -1.55535 0
M  V30 23 C -5.64355 1.85636 -0.0995172 0
M  V30 24 C -5.81402 0.626533 0.486403 0
M  V30 25 C -4.81165 -0.315039 0.417438 0
M  V30 26 N -5.04954 -1.58082 1.04472 0
M  V30 27 H 2.69024 1.70167 -1.12478 0
M  V30 28 H 6.56294 2.85759 0.0532232 0
M  V30 29 H 6.66469 0.954738 1.6134 0
M  V30 30 H 4.59352 -0.759067 3.05294 0
M  V30 31 H 5.24551 -1.73091 1.70413 0
M  V30 32 H 0.539824 1.10367 -0.82694 0
M  V30 33 H 1.50678 0.0499881 -1.91772 0
M  V30 34 H -0.221626 -1.14379 -2.53586 0
M  V30 35 H -1.10149 0.335449 -2.30806 0
M  V30 36 H -0.049627 -2.85605 -1.32295 0
M  V30 37 H -1.18912 -3.13994 0.0383492 0
M  V30 38 H -0.154224 -1.43163 1.40236 0
M  V30 39 H 1.09878 -2.65634 0.893253 0
M  V30 40 H -2.5548 1.40979 -1.2962 0
M  V30 41 H -6.44228 2.56615 -0.0281831 0
M  V30 42 H -6.75077 0.417898 1.00053 0
M  V30 43 H -4.83257 -1.71712 2.04131 0
M  V30 44 H -5.44296 -2.33121 0.449941 0
M  V30 END ATOM
M  V30 BEGIN BOND
M  V30 1 2 1 2
M  V30 2 1 2 3
M  V30 3 2 3 4
M  V30 4 1 4 5
M  V30 5 1 5 6
M  V30 6 2 5 7
M  V30 7 1 7 8
M  V30 8 2 8 9
M  V30 9 1 9 10
M  V30 10 1 2 11
M  V30 11 1 11 12
M  V30 12 1 12 13
M  V30 13 1 13 14
M  V30 14 1 14 15
M  V30 15 1 15 16
M  V30 16 1 14 17
M  V30 17 2 17 18
M  V30 18 1 17 19
M  V30 19 2 19 20
M  V30 20 1 20 21
M  V30 21 1 21 22
M  V30 22 2 21 23
M  V30 23 1 23 24
M  V30 24 2 24 25
M  V30 25 1 25 26
M  V30 26 1 9 3
M  V30 27 1 16 11
M  V30 28 1 25 19
M  V30 29 1 4 27
M  V30 30 1 7 28
M  V30 31 1 8 29
M  V30 32 1 10 30
M  V30 33 1 10 31
M  V30 34 1 12 32
M  V30 35 1 12 33
M  V30 36 1 13 34
M  V30 37 1 13 35
M  V30 38 1 15 36
M  V30 39 1 15 37
M  V30 40 1 16 38
M  V30 41 1 16 39
M  V30 42 1 20 40
M  V30 43 1 23 41
M  V30 44 1 24 42
M  V30 45 1 26 43
M  V30 46 1 26 44
M  V30 END BOND
M  V30 END CTAB
M  END
