
     RDKit          3D

  0  0  0  0  0  0  0  0  0  0999 V3000
M  V30 BEGIN CTAB
M  V30 COUNTS 44 44 0 0 0
M  V30 BEGIN ATOM
M  V30 1 C -4.89272 1.53268 -0.681012 0
M  V30 2 C -3.41653 1.76422 -0.823441 0
M  V30 3 C -2.71006 0.750671 -1.66888 0
M  V30 4 C -2.73354 -0.648835 -1.24642 0
M  V30 5 C -2.14253 -1.08191 0.0254581 0
M  V30 6 N -0.75958 -0.780385 0.209211 0
M  V30 7 C 0.208343 -1.80813 0.225762 0
M  V30 8 O -0.209838 -3.00581 0.0700564 0
M  V30 9 C 1.64264 -1.60651 0.40634 0
M  V30 10 C 2.5014 -2.68775 0.3995 0
M  V30 11 C 3.87015 -2.54813 0.56697 0
M  V30 12 C 4.44741 -1.31021 0.750483 0
M  V30 13 C 3.60564 -0.221174 0.759981 0
M  V30 14 C 2.22314 -0.370653 0.590025 0
M  V30 15 C 4.117 1.13621 0.947038 0
M  V30 16 S 4.5442 1.95495 -0.552929 0
M  V30 17 O 3.35148 2.14561 -1.44498 0
M  V30 18 O 5.60724 1.27795 -1.32514 0
M  V30 19 N 5.12736 3.54201 -0.124656 0
M  V30 20 C -2.98116 -0.897669 1.24463 0
M  V30 21 N -4.21353 -1.66707 1.09607 0
M  V30 22 H -5.16946 0.557534 -1.17722 0
M  V30 23 H -5.12406 1.43441 0.400597 0
M  V30 24 H -5.46355 2.37243 -1.08867 0
M  V30 25 H -2.9403 1.93641 0.162424 0
M  V30 26 H -3.2824 2.78852 -1.33587 0
M  V30 27 H -3.25439 0.793024 -2.67653 0
M  V30 28 H -1.68503 1.11437 -1.96854 0
M  V30 29 H -2.32439 -1.26446 -2.12086 0
M  V30 30 H -3.82915 -0.977364 -1.26503 0
M  V30 31 H -2.13874 -2.26416 -0.0803501 0
M  V30 32 H -0.383242 0.189069 0.339439 0
M  V30 33 H 2.04248 -3.66464 0.254253 0
M  V30 34 H 4.4953 -3.434 0.552527 0
M  V30 35 H 5.51906 -1.22692 0.879111 0
M  V30 36 H 1.57115 0.494553 0.599511 0
M  V30 37 H 4.95869 1.09052 1.66232 0
M  V30 38 H 3.32533 1.75723 1.44144 0
M  V30 39 H 5.68173 3.47698 0.769077 0
M  V30 40 H 5.67598 3.97224 -0.888371 0
M  V30 41 H -3.23284 0.118683 1.52657 0
M  V30 42 H -2.44219 -1.34415 2.12944 0
M  V30 43 H -4.14521 -2.32562 0.285918 0
M  V30 44 H -5.04132 -1.06474 1.09545 0
M  V30 END ATOM
M  V30 BEGIN BOND
M  V30 1 1 1 2
M  V30 2 1 2 3
M  V30 3 1 3 4
M  V30 4 1 4 5
M  V30 5 1 5 6
M  V30 6 1 6 7
M  V30 7 2 7 8
M  V30 8 1 7 9
M  V30 9 2 9 10
M  V30 10 1 10 11
M  V30 11 2 11 12
M  V30 12 1 12 13
M  V30 13 2 13 14
M  V30 14 1 13 15
M  V30 15 1 15 16
M  V30 16 2 16 17
M  V30 17 2 16 18
M  V30 18 1 16 19
M  V30 19 1 5 20
M  V30 20 1 20 21
M  V30 21 1 14 9
M  V30 22 1 1 22
M  V30 23 1 1 23
M  V30 24 1 1 24
M  V30 25 1 2 25
M  V30 26 1 2 26
M  V30 27 1 3 27
M  V30 28 1 3 28
M  V30 29 1 4 29
M  V30 30 1 4 30
M  V30 31 1 5 31
M  V30 32 1 6 32
M  V30 33 1 10 33
M  V30 34 1 11 34
M  V30 35 1 12 35
M  V30 36 1 14 36
M  V30 37 1 15 37
M  V30 38 1 15 38
M  V30 39 1 19 39
M  V30 40 1 19 40
M  V30 41 1 20 41
M  V30 42 1 20 42
M  V30 43 1 21 43
M  V30 44 1 21 44
M  V30 END BOND
M  V30 END CTAB
M  END
