
     RDKit          3D

  0  0  0  0  0  0  0  0  0  0999 V3000
M  V30 BEGIN CTAB
M  V30 COUNTS 40 41 0 0 0
M  V30 BEGIN ATOM
M  V30 1 O -1.27813 -0.61558 1.56258 0
M  V30 2 C -1.23033 0.338714 0.73693 0
M  V30 3 N -2.38081 0.728682 0.00831028 0
M  V30 4 C -3.61239 0.0352729 0.207645 0
M  V30 5 C -4.14923 -0.569423 -1.07192 0
M  V30 6 C -5.58128 -0.869234 -0.686255 0
M  V30 7 C -5.9947 0.413112 -0.00686988 0
M  V30 8 C -4.74615 0.955055 0.610593 0
M  V30 9 C 0.069682 1.04825 0.545675 0
M  V30 10 C 1.13512 0.442508 1.44712 0
M  V30 11 S 1.38335 -1.3132 1.06999 0
M  V30 12 C 2.07737 -1.45764 -0.580667 0
M  V30 13 C 3.44796 -0.886436 -0.66696 0
M  V30 14 N 3.68222 0.395166 -0.983379 0
M  V30 15 C 4.93819 0.916369 -1.06088 0
M  V30 16 N 5.16709 2.27183 -1.39648 0
M  V30 17 N 6.00277 0.113115 -0.80908 0
M  V30 18 C 5.76706 -1.1716 -0.491898 0
M  V30 19 N 4.51287 -1.67187 -0.419732 0
M  V30 20 N 6.8353 -2.07597 -0.213289 0
M  V30 21 H -2.29797 1.51815 -0.660027 0
M  V30 22 H -3.54063 -0.784489 0.950903 0
M  V30 23 H -3.59584 -1.48334 -1.36374 0
M  V30 24 H -4.18172 0.188104 -1.87073 0
M  V30 25 H -5.56856 -1.68385 0.062941 0
M  V30 26 H -6.20917 -1.10012 -1.57006 0
M  V30 27 H -6.32686 1.13563 -0.795097 0
M  V30 28 H -6.81479 0.259236 0.722506 0
M  V30 29 H -4.82672 0.95126 1.73686 0
M  V30 30 H -4.49468 1.98759 0.290077 0
M  V30 31 H -0.0394325 2.1283 0.767603 0
M  V30 32 H 0.375619 0.988467 -0.525091 0
M  V30 33 H 2.07094 1.0312 1.27299 0
M  V30 34 H 0.872888 0.584421 2.49872 0
M  V30 35 H 1.43115 -0.92945 -1.29803 0
M  V30 36 H 2.1395 -2.54069 -0.888058 0
M  V30 37 H 4.86761 2.60936 -2.32772 0
M  V30 38 H 5.62126 2.92485 -0.740619 0
M  V30 39 H 6.7196 -2.86428 0.446894 0
M  V30 40 H 7.75187 -1.94747 -0.678698 0
M  V30 END ATOM
M  V30 BEGIN BOND
M  V30 1 2 1 2
M  V30 2 1 2 3
M  V30 3 1 3 4
M  V30 4 1 4 5
M  V30 5 1 5 6
M  V30 6 1 6 7
M  V30 7 1 7 8
M  V30 8 1 2 9
M  V30 9 1 9 10
M  V30 10 1 10 11
M  V30 11 1 11 12
M  V30 12 1 12 13
M  V30 13 2 13 14
M  V30 14 1 14 15
M  V30 15 1 15 16
M  V30 16 2 15 17
M  V30 17 1 17 18
M  V30 18 2 18 19
M  V30 19 1 18 20
M  V30 20 1 8 4
M  V30 21 1 19 13
M  V30 22 1 3 21
M  V30 23 1 4 22
M  V30 24 1 5 23
M  V30 25 1 5 24
M  V30 26 1 6 25
M  V30 27 1 6 26
M  V30 28 1 7 27
M  V30 29 1 7 28
M  V30 30 1 8 29
M  V30 31 1 8 30
M  V30 32 1 9 31
M  V30 33 1 9 32
M  V30 34 1 10 33
M  V30 35 1 10 34
M  V30 36 1 12 35
M  V30 37 1 12 36
M  V30 38 1 16 37
M  V30 39 1 16 38
M  V30 40 1 20 39
M  V30 41 1 20 40
M  V30 END BOND
M  V30 END CTAB
M  END
