
     RDKit          3D

  0  0  0  0  0  0  0  0  0  0999 V3000
M  V30 BEGIN CTAB
M  V30 COUNTS 19 19 0 0 0
M  V30 BEGIN ATOM
M  V30 1 F -3.40455 -0.312852 1.38415 0
M  V30 2 C -2.8042 -0.730814 0.215826 0
M  V30 3 C -1.38934 -0.244925 0.115846 0
M  V30 4 C -0.318092 -1.10254 -0.0154936 0
M  V30 5 C 0.982781 -0.627396 -0.106121 0
M  V30 6 N 2.08801 -1.49529 -0.240859 0
M  V30 7 C 1.23106 0.729045 -0.0659435 0
M  V30 8 C 0.176128 1.60739 0.0649295 0
M  V30 9 C -1.1283 1.10826 0.154775 0
M  V30 10 Br -2.60692 2.29654 0.336279 0
M  V30 11 N 2.5699 1.20162 -0.159954 0
M  V30 12 F -3.50502 -0.216961 -0.853902 0
M  V30 13 H -2.87478 -1.81445 0.17269 0
M  V30 14 H -0.482268 -2.17004 -0.0498024 0
M  V30 15 H 2.04123 -2.21024 -1.00642 0
M  V30 16 H 2.93175 -1.47848 0.353328 0
M  V30 17 H 0.329698 2.67382 0.1001 0
M  V30 18 H 3.39281 0.611424 0.0778148 0
M  V30 19 H 2.7701 2.17589 -0.477244 0
M  V30 END ATOM
M  V30 BEGIN BOND
M  V30 1 1 1 2
M  V30 2 1 2 3
M  V30 3 2 3 4
M  V30 4 1 4 5
M  V30 5 1 5 6
M  V30 6 2 5 7
M  V30 7 1 7 8
M  V30 8 2 8 9
M  V30 9 1 9 10
M  V30 10 1 7 11
M  V30 11 1 2 12
M  V30 12 1 9 3
M  V30 13 1 2 13
M  V30 14 1 4 14
M  V30 15 1 6 15
M  V30 16 1 6 16
M  V30 17 1 8 17
M  V30 18 1 11 18
M  V30 19 1 11 19
M  V30 END BOND
M  V30 END CTAB
M  END
