
     RDKit          3D

  0  0  0  0  0  0  0  0  0  0999 V3000
M  V30 BEGIN CTAB
M  V30 COUNTS 26 27 0 0 0
M  V30 BEGIN ATOM
M  V30 1 C 4.73815 0.786677 0.0538486 0
M  V30 2 C 3.45313 0.0528905 0.267316 0
M  V30 3 N 3.30008 -1.13149 0.882703 0
M  V30 4 C 1.99013 -1.4558 0.872456 0
M  V30 5 N 1.27756 -0.493661 0.254574 0
M  V30 6 C 2.18948 0.445656 -0.122047 0
M  V30 7 C -0.113491 -0.415559 0.0164921 0
M  V30 8 C -0.714002 -1.38255 -0.745848 0
M  V30 9 C -2.06887 -1.35243 -1.00799 0
M  V30 10 C -2.87543 -0.339157 -0.508016 0
M  V30 11 C -2.25325 0.625662 0.2574 0
M  V30 12 C -0.891442 0.595797 0.521161 0
M  V30 13 N -3.07197 1.67544 0.778917 0
M  V30 14 N -4.26967 -0.289678 -0.765591 0
M  V30 15 H 4.55266 1.87186 -0.102819 0
M  V30 16 H 5.42941 0.634165 0.91535 0
M  V30 17 H 5.25968 0.428162 -0.873095 0
M  V30 18 H 1.54545 -2.35283 1.2922 0
M  V30 19 H 1.98531 1.37954 -0.653073 0
M  V30 20 H -0.102981 -2.18006 -1.14431 0
M  V30 21 H -2.5717 -2.10669 -1.6098 0
M  V30 22 H -0.463202 1.40139 1.14126 0
M  V30 23 H -3.18785 2.594 0.298286 0
M  V30 24 H -3.58964 1.55059 1.67654 0
M  V30 25 H -4.71023 0.619873 -0.927094 0
M  V30 26 H -4.83733 -1.1618 -0.790506 0
M  V30 END ATOM
M  V30 BEGIN BOND
M  V30 1 1 1 2
M  V30 2 1 2 3
M  V30 3 2 3 4
M  V30 4 1 4 5
M  V30 5 1 5 6
M  V30 6 1 5 7
M  V30 7 2 7 8
M  V30 8 1 8 9
M  V30 9 2 9 10
M  V30 10 1 10 11
M  V30 11 2 11 12
M  V30 12 1 11 13
M  V30 13 1 10 14
M  V30 14 2 6 2
M  V30 15 1 12 7
M  V30 16 1 1 15
M  V30 17 1 1 16
M  V30 18 1 1 17
M  V30 19 1 4 18
M  V30 20 1 6 19
M  V30 21 1 8 20
M  V30 22 1 9 21
M  V30 23 1 12 22
M  V30 24 1 13 23
M  V30 25 1 13 24
M  V30 26 1 14 25
M  V30 27 1 14 26
M  V30 END BOND
M  V30 END CTAB
M  END
