
     RDKit          3D

  0  0  0  0  0  0  0  0  0  0999 V3000
M  V30 BEGIN CTAB
M  V30 COUNTS 27 28 0 0 0
M  V30 BEGIN ATOM
M  V30 1 C -3.70008 1.06089 0.331926 0
M  V30 2 N -3.42156 -0.30589 0.527858 0
M  V30 3 C -2.10725 -0.749017 0.360723 0 CFG=2
M  V30 4 C -1.04601 -0.188602 1.28036 0
M  V30 5 C -0.0884748 -0.562774 0.124126 0 CFG=1
M  V30 6 C -1.25566 -0.219408 -0.772377 0
M  V30 7 C 1.10711 0.249981 0.0717665 0
M  V30 8 N 1.20306 1.56208 -0.125579 0
M  V30 9 N 2.4752 1.94551 -0.0935118 0
M  V30 10 C 3.1907 0.837697 0.130577 0
M  V30 11 N 2.35627 -0.215185 0.233997 0
M  V30 12 N 2.70619 -1.54558 0.467775 0
M  V30 13 N 4.59326 0.767705 0.24844 0
M  V30 14 H -3.17966 1.4944 -0.507128 0
M  V30 15 H -3.44279 1.61761 1.26486 0
M  V30 16 H -4.78843 1.19707 0.194299 0
M  V30 17 H -4.11804 -0.990121 0.234842 0
M  V30 18 H -2.04808 -1.85772 0.360154 0
M  V30 19 H -1.02708 0.923527 1.33979 0
M  V30 20 H -0.809785 -0.74006 2.18807 0
M  V30 21 H 0.105244 -1.67595 0.145053 0
M  V30 22 H -1.34418 -0.828145 -1.69658 0
M  V30 23 H -1.28888 0.860687 -0.93403 0
M  V30 24 H 2.90671 -1.93337 1.40837 0
M  V30 25 H 2.76402 -2.17949 -0.347151 0
M  V30 26 H 5.03067 0.575974 1.1911 0
M  V30 27 H 5.22752 0.898184 -0.552188 0
M  V30 END ATOM
M  V30 BEGIN BOND
M  V30 1 1 1 2
M  V30 2 1 2 3
M  V30 3 1 3 4
M  V30 4 1 4 5
M  V30 5 1 5 6
M  V30 6 1 5 7
M  V30 7 2 7 8
M  V30 8 1 8 9
M  V30 9 2 9 10
M  V30 10 1 10 11
M  V30 11 1 11 12
M  V30 12 1 10 13
M  V30 13 1 6 3
M  V30 14 1 11 7
M  V30 15 1 1 14
M  V30 16 1 1 15
M  V30 17 1 1 16
M  V30 18 1 2 17
M  V30 19 1 3 18 CFG=3
M  V30 20 1 4 19
M  V30 21 1 4 20
M  V30 22 1 5 21 CFG=1
M  V30 23 1 6 22
M  V30 24 1 6 23
M  V30 25 1 12 24
M  V30 26 1 12 25
M  V30 27 1 13 26
M  V30 28 1 13 27
M  V30 END BOND
M  V30 END CTAB
M  END
