
     RDKit          3D

  0  0  0  0  0  0  0  0  0  0999 V3000
M  V30 BEGIN CTAB
M  V30 COUNTS 32 32 0 0 0
M  V30 BEGIN ATOM
M  V30 1 C 2.96411 0.691936 1.68515 0
M  V30 2 N 1.96311 0.121774 0.858799 0
M  V30 3 C 1.67805 0.902063 -0.287999 0
M  V30 4 C 0.695747 0.298066 -1.22369 0
M  V30 5 C -0.617689 -0.00338781 -0.709003 0
M  V30 6 C -1.09557 0.330042 0.525312 0
M  V30 7 C -2.36424 -0.0131251 0.915364 0
M  V30 8 C -2.87159 0.346651 2.24516 0
M  V30 9 C -3.22069 -0.718817 0.0636123 0
M  V30 10 N -2.71788 -1.03271 -1.14778 0
M  V30 11 C -1.47897 -0.709559 -1.55647 0
M  V30 12 N -1.0717 -1.10467 -2.85351 0
M  V30 13 N 0.509141 1.24543 -2.33413 0
M  V30 14 C 1.86903 -1.26785 0.830123 0
M  V30 15 H 2.80029 1.76758 1.92141 0
M  V30 16 H 3.98456 0.544615 1.23416 0
M  V30 17 H 3.01854 0.155642 2.66881 0
M  V30 18 H 1.46961 1.96144 -0.0288828 0
M  V30 19 H 2.66114 0.959178 -0.85321 0
M  V30 20 H 1.13277 -0.590431 -1.70618 0
M  V30 21 H -0.460693 0.874339 1.18894 0
M  V30 22 H -3.81014 -0.22375 2.49281 0
M  V30 23 H -3.06786 1.4352 2.33542 0
M  V30 24 H -2.13621 0.0747206 3.0593 0
M  V30 25 H -4.23129 -0.991645 0.366674 0
M  V30 26 H -1.56809 -0.79643 -3.70739 0
M  V30 27 H -0.248485 -1.72592 -2.96941 0
M  V30 28 H -0.435694 1.6384 -2.36896 0
M  V30 29 H 0.947561 0.956312 -3.20776 0
M  V30 30 H 2.89433 -1.71214 1.03009 0
M  V30 31 H 1.56207 -1.73245 -0.136303 0
M  V30 32 H 1.24672 -1.68051 1.66955 0
M  V30 END ATOM
M  V30 BEGIN BOND
M  V30 1 1 1 2
M  V30 2 1 2 3
M  V30 3 1 3 4
M  V30 4 1 4 5
M  V30 5 2 5 6
M  V30 6 1 6 7
M  V30 7 1 7 8
M  V30 8 2 7 9
M  V30 9 1 9 10
M  V30 10 2 10 11
M  V30 11 1 11 12
M  V30 12 1 4 13
M  V30 13 1 2 14
M  V30 14 1 11 5
M  V30 15 1 1 15
M  V30 16 1 1 16
M  V30 17 1 1 17
M  V30 18 1 3 18
M  V30 19 1 3 19
M  V30 20 1 4 20
M  V30 21 1 6 21
M  V30 22 1 8 22
M  V30 23 1 8 23
M  V30 24 1 8 24
M  V30 25 1 9 25
M  V30 26 1 12 26
M  V30 27 1 12 27
M  V30 28 1 13 28
M  V30 29 1 13 29
M  V30 30 1 14 30
M  V30 31 1 14 31
M  V30 32 1 14 32
M  V30 END BOND
M  V30 END CTAB
M  END
