
     RDKit          3D

  0  0  0  0  0  0  0  0  0  0999 V3000
M  V30 BEGIN CTAB
M  V30 COUNTS 132 135 0 0 0
M  V30 BEGIN ATOM
M  V30 1 C -5.66053 -1.30701 -0.603755 0 CFG=1
M  V30 2 C -6.30689 -2.01636 -1.81594 0
M  V30 3 C -7.76998 -2.2358 -1.35152 0
M  V30 4 C -7.94184 -0.915764 -0.762636 0 CFG=1
M  V30 5 C -9.16433 -0.61723 -0.00239025 0 CFG=2
M  V30 6 C -10.4457 -1.11013 -0.593104 0 CFG=2
M  V30 7 N -10.716 -0.645562 -1.92001 0
M  V30 8 C -11.5336 -0.696067 0.389435 0
M  V30 9 C -11.5942 0.778925 0.596435 0 CFG=2
M  V30 10 C -12.2658 1.48793 -0.587962 0
M  V30 11 C -12.8687 2.76633 -0.00648708 0 CFG=1
M  V30 12 C -11.8761 3.34249 0.976378 0
M  V30 13 C -10.462 2.91656 0.638376 0
M  V30 14 C -10.2651 1.43029 0.922197 0 CFG=1
M  V30 15 C -9.89536 1.30377 2.36201 0
M  V30 16 C -9.2548 0.915104 -0.0220604 0 CFG=1
M  V30 17 C -7.88694 1.42936 0.0316582 0
M  V30 18 C -6.82069 0.56707 0.666632 0 CFG=2
M  V30 19 N -5.6153 1.3508 0.52748 0
M  V30 20 C -6.73581 -0.849413 0.210354 0 CFG=2
M  V30 21 C -7.01749 -1.79861 1.3725 0
M  V30 22 N -13.2918 3.68992 -1.01308 0
M  V30 23 N -14.4178 3.61007 -1.51368 0 CHG=1
M  V30 24 N -15.3809 3.32466 -2.2194 0 CHG=-1
M  V30 25 C -4.63667 -2.32996 -0.164499 0 CFG=2
M  V30 26 C -3.84771 -1.91188 1.03727 0
M  V30 27 C -3.67284 -2.41873 -1.3259 0
M  V30 28 C -2.58501 -3.36736 -1.33512 0
M  V30 29 C -1.49751 -3.43712 -0.405701 0
M  V30 30 O -1.48217 -4.04867 0.719967 0
M  V30 31 O -0.256627 -2.80183 -0.664516 0
M  V30 32 C 0.812215 -2.88283 0.235951 0
M  V30 33 C 2.05126 -2.2098 -0.227565 0
M  V30 34 C 1.88096 -0.746211 -0.451427 0
M  V30 35 C 3.18504 -0.110435 -0.95526 0
M  V30 36 C 4.29374 -0.315058 -0.00183276 0
M  V30 37 C 5.60752 0.336474 -0.467772 0
M  V30 38 C 6.02142 -0.260769 -1.74833 0
M  V30 39 C 7.20162 0.21012 -2.46914 0
M  V30 40 C 8.52795 0.148035 -1.83863 0
M  V30 41 C 8.76172 1.02776 -0.686241 0
M  V30 42 C 10.2174 0.881107 -0.174627 0
M  V30 43 C 10.5346 -0.488323 0.25712 0
M  V30 44 C 11.9012 -0.744123 0.744245 0
M  V30 45 C 12.4501 -0.0954066 1.93195 0
M  V30 46 C 12.6399 1.36396 2.00623 0
M  V30 47 C 13.5402 1.95745 0.949681 0
M  V30 48 C 14.9363 1.35304 1.0303 0
M  V30 49 C 15.8337 1.9595 -0.0248703 0
M  V30 50 C 17.2251 1.37683 0.0276127 0
M  V30 51 C 17.8091 1.65972 1.39265 0
M  V30 52 H -5.08708 -0.46607 -1.05465 0
M  V30 53 H -5.9655 -3.03956 -1.96693 0
M  V30 54 H -6.26602 -1.42208 -2.72184 0
M  V30 55 H -8.3723 -2.43904 -2.26848 0
M  V30 56 H -7.84692 -3.11585 -0.719825 0
M  V30 57 H -7.71272 -0.150683 -1.53331 0
M  V30 58 H -9.17927 -0.864367 1.06971 0
M  V30 59 H -10.4081 -2.23677 -0.541603 0
M  V30 60 H -9.8109 -0.406734 -2.39227 0
M  V30 61 H -11.1893 -1.4364 -2.4361 0
M  V30 62 H -11.3382 -1.19376 1.3507 0
M  V30 63 H -12.4848 -1.02392 -0.0459792 0
M  V30 64 H -12.2569 0.959829 1.46991 0
M  V30 65 H -13.1096 0.856918 -0.904471 0
M  V30 66 H -11.5642 1.74232 -1.38353 0
M  V30 67 H -13.7519 2.41593 0.591774 0
M  V30 68 H -11.9174 4.43227 0.940632 0
M  V30 69 H -12.1018 3.00206 2.00668 0
M  V30 70 H -9.73333 3.54611 1.17265 0
M  V30 71 H -10.3184 3.11108 -0.44409 0
M  V30 72 H -9.05471 1.98789 2.57318 0
M  V30 73 H -9.71063 0.265411 2.67861 0
M  V30 74 H -10.7706 1.69078 2.95607 0
M  V30 75 H -9.65055 1.13083 -1.06328 0
M  V30 76 H -7.88122 2.38652 0.639739 0
M  V30 77 H -7.4869 1.77888 -0.966864 0
M  V30 78 H -7.05668 0.549435 1.75248 0
M  V30 79 H -5.03907 1.23959 1.4148 0
M  V30 80 H -5.805 2.35182 0.459914 0
M  V30 81 H -6.2466 -2.53374 1.56437 0
M  V30 82 H -7.94385 -2.39278 1.18081 0
M  V30 83 H -7.24267 -1.18473 2.26857 0
M  V30 84 H -5.03534 -3.33298 0.00649052 0
M  V30 85 H -2.87287 -1.53088 0.730116 0
M  V30 86 H -4.30956 -1.03167 1.58908 0
M  V30 87 H -3.66725 -2.73618 1.75549 0
M  V30 88 H -3.18378 -1.36974 -1.46244 0
M  V30 89 H -4.19624 -2.49796 -2.32924 0
M  V30 90 H -2.08158 -3.22971 -2.37033 0
M  V30 91 H -2.93806 -4.45208 -1.47234 0
M  V30 92 H 0.565692 -2.48547 1.24175 0
M  V30 93 H 1.07812 -3.96631 0.415809 0
M  V30 94 H 2.82655 -2.32603 0.587793 0
M  V30 95 H 2.41922 -2.73981 -1.13343 0
M  V30 96 H 1.16257 -0.605385 -1.28965 0
M  V30 97 H 1.55135 -0.245453 0.459508 0
M  V30 98 H 3.37695 -0.439971 -1.98979 0
M  V30 99 H 2.96979 0.982391 -0.999437 0
M  V30 100 H 4.10401 0.148 0.99348 0
M  V30 101 H 4.56248 -1.38195 0.16224 0
M  V30 102 H 6.32644 -0.0441454 0.349143 0
M  V30 103 H 5.55479 1.42255 -0.480468 0
M  V30 104 H 5.15703 -0.185182 -2.51171 0
M  V30 105 H 6.0531 -1.40269 -1.62309 0
M  V30 106 H 7.05214 1.29709 -2.80051 0
M  V30 107 H 7.29122 -0.317865 -3.4808 0
M  V30 108 H 9.36398 0.22125 -2.60301 0
M  V30 109 H 8.63856 -0.938599 -1.46819 0
M  V30 110 H 8.7592 2.09943 -1.07383 0
M  V30 111 H 8.11525 0.970412 0.158047 0
M  V30 112 H 10.2984 1.63206 0.609617 0
M  V30 113 H 10.8367 1.20882 -1.02691 0
M  V30 114 H 10.3581 -1.20895 -0.599673 0
M  V30 115 H 9.81174 -0.855619 1.05838 0
M  V30 116 H 11.9788 -1.88627 0.908148 0
M  V30 117 H 12.5913 -0.576662 -0.150375 0
M  V30 118 H 11.8074 -0.375973 2.84502 0
M  V30 119 H 13.4436 -0.593848 2.23664 0
M  V30 120 H 13.2713 1.52969 2.9826 0
M  V30 121 H 11.781 2.00137 2.16925 0
M  V30 122 H 13.6684 3.03436 1.20758 0
M  V30 123 H 13.1474 1.90279 -0.0712841 0
M  V30 124 H 14.8664 0.262013 0.787627 0
M  V30 125 H 15.3669 1.47712 2.03693 0
M  V30 126 H 15.9228 3.05346 0.224724 0
M  V30 127 H 15.3834 1.91976 -1.02243 0
M  V30 128 H 17.8239 1.85742 -0.776789 0
M  V30 129 H 17.1754 0.278193 -0.103892 0
M  V30 130 H 17.3573 0.947982 2.11342 0
M  V30 131 H 17.5986 2.67677 1.72567 0
M  V30 132 H 18.9059 1.46649 1.40604 0
M  V30 END ATOM
M  V30 BEGIN BOND
M  V30 1 1 1 2
M  V30 2 1 2 3
M  V30 3 1 3 4
M  V30 4 1 4 5
M  V30 5 1 5 6
M  V30 6 1 6 7
M  V30 7 1 6 8
M  V30 8 1 8 9
M  V30 9 1 9 10
M  V30 10 1 10 11
M  V30 11 1 11 12
M  V30 12 1 12 13
M  V30 13 1 13 14
M  V30 14 1 14 15 CFG=1
M  V30 15 1 14 16
M  V30 16 1 16 17
M  V30 17 1 17 18
M  V30 18 1 18 19
M  V30 19 1 18 20
M  V30 20 1 20 21 CFG=1
M  V30 21 1 11 22
M  V30 22 2 22 23 CFG=2
M  V30 23 2 23 24
M  V30 24 1 1 25
M  V30 25 1 25 26
M  V30 26 1 25 27
M  V30 27 1 27 28
M  V30 28 1 28 29
M  V30 29 2 29 30
M  V30 30 1 29 31
M  V30 31 1 31 32
M  V30 32 1 32 33
M  V30 33 1 33 34
M  V30 34 1 34 35
M  V30 35 1 35 36
M  V30 36 1 36 37
M  V30 37 1 37 38
M  V30 38 1 38 39
M  V30 39 1 39 40
M  V30 40 1 40 41
M  V30 41 1 41 42
M  V30 42 1 42 43
M  V30 43 1 43 44
M  V30 44 1 44 45
M  V30 45 1 45 46
M  V30 46 1 46 47
M  V30 47 1 47 48
M  V30 48 1 48 49
M  V30 49 1 49 50
M  V30 50 1 50 51
M  V30 51 1 20 1
M  V30 52 1 20 4
M  V30 53 1 16 5
M  V30 54 1 14 9
M  V30 55 1 1 52 CFG=3
M  V30 56 1 2 53
M  V30 57 1 2 54
M  V30 58 1 3 55
M  V30 59 1 3 56
M  V30 60 1 4 57 CFG=3
M  V30 61 1 5 58 CFG=1
M  V30 62 1 6 59 CFG=3
M  V30 63 1 7 60
M  V30 64 1 7 61
M  V30 65 1 8 62
M  V30 66 1 8 63
M  V30 67 1 9 64 CFG=1
M  V30 68 1 10 65
M  V30 69 1 10 66
M  V30 70 1 11 67 CFG=1
M  V30 71 1 12 68
M  V30 72 1 12 69
M  V30 73 1 13 70
M  V30 74 1 13 71
M  V30 75 1 15 72
M  V30 76 1 15 73
M  V30 77 1 15 74
M  V30 78 1 16 75 CFG=3
M  V30 79 1 17 76
M  V30 80 1 17 77
M  V30 81 1 18 78 CFG=1
M  V30 82 1 19 79
M  V30 83 1 19 80
M  V30 84 1 21 81
M  V30 85 1 21 82
M  V30 86 1 21 83
M  V30 87 1 25 84 CFG=1
M  V30 88 1 26 85
M  V30 89 1 26 86
M  V30 90 1 26 87
M  V30 91 1 27 88
M  V30 92 1 27 89
M  V30 93 1 28 90
M  V30 94 1 28 91
M  V30 95 1 32 92
M  V30 96 1 32 93
M  V30 97 1 33 94
M  V30 98 1 33 95
M  V30 99 1 34 96
M  V30 100 1 34 97
M  V30 101 1 35 98
M  V30 102 1 35 99
M  V30 103 1 36 100
M  V30 104 1 36 101
M  V30 105 1 37 102
M  V30 106 1 37 103
M  V30 107 1 38 104
M  V30 108 1 38 105
M  V30 109 1 39 106
M  V30 110 1 39 107
M  V30 111 1 40 108
M  V30 112 1 40 109
M  V30 113 1 41 110
M  V30 114 1 41 111
M  V30 115 1 42 112
M  V30 116 1 42 113
M  V30 117 1 43 114
M  V30 118 1 43 115
M  V30 119 1 44 116
M  V30 120 1 44 117
M  V30 121 1 45 118
M  V30 122 1 45 119
M  V30 123 1 46 120
M  V30 124 1 46 121
M  V30 125 1 47 122
M  V30 126 1 47 123
M  V30 127 1 48 124
M  V30 128 1 48 125
M  V30 129 1 49 126
M  V30 130 1 49 127
M  V30 131 1 50 128
M  V30 132 1 50 129
M  V30 133 1 51 130
M  V30 134 1 51 131
M  V30 135 1 51 132
M  V30 END BOND
M  V30 END CTAB
M  END
