
     RDKit          3D

  0  0  0  0  0  0  0  0  0  0999 V3000
M  V30 BEGIN CTAB
M  V30 COUNTS 28 29 0 0 0
M  V30 BEGIN ATOM
M  V30 1 N -3.32565 2.03568 -1.3981 0
M  V30 2 C -2.85191 0.802424 -0.854139 0
M  V30 3 C -1.51304 0.719717 -0.551843 0
M  V30 4 C -1.01222 -0.444769 -0.0273554 0
M  V30 5 N -1.89836 -1.4595 0.160721 0
M  V30 6 C -3.19402 -1.39352 -0.126717 0
M  V30 7 N -3.67702 -0.232357 -0.64637 0
M  V30 8 N -4.1012 -2.45535 0.0741772 0
M  V30 9 O 0.311055 -0.621201 0.30578 0
M  V30 10 C 1.34401 0.315766 0.175786 0
M  V30 11 C 2.42435 -0.276952 -0.708206 0
M  V30 12 C 3.64792 0.45834 -1.0403 0
M  V30 13 C 3.68325 -0.648634 0.0103392 0
M  V30 14 C 1.87805 0.542768 1.59218 0
M  V30 15 H -3.4127 2.09334 -2.42973 0
M  V30 16 H -3.55589 2.80394 -0.731173 0
M  V30 17 H -0.882464 1.57021 -0.732276 0
M  V30 18 H -3.98334 -3.14033 0.841085 0
M  V30 19 H -4.9124 -2.5595 -0.560794 0
M  V30 20 H 1.02147 1.27039 -0.236279 0
M  V30 21 H 2.04097 -0.980088 -1.46856 0
M  V30 22 H 4.19083 0.194374 -1.95415 0
M  V30 23 H 3.80615 1.50387 -0.717922 0
M  V30 24 H 3.93272 -0.286086 1.00284 0
M  V30 25 H 4.11921 -1.63209 -0.270845 0
M  V30 26 H 2.15675 -0.43368 1.99069 0
M  V30 27 H 1.04172 1.02326 2.14912 0
M  V30 28 H 2.72175 1.23 1.62449 0
M  V30 END ATOM
M  V30 BEGIN BOND
M  V30 1 1 1 2
M  V30 2 2 2 3
M  V30 3 1 3 4
M  V30 4 2 4 5
M  V30 5 1 5 6
M  V30 6 2 6 7
M  V30 7 1 6 8
M  V30 8 1 4 9
M  V30 9 1 9 10
M  V30 10 1 10 11
M  V30 11 1 11 12
M  V30 12 1 12 13
M  V30 13 1 10 14
M  V30 14 1 7 2
M  V30 15 1 13 11
M  V30 16 1 1 15
M  V30 17 1 1 16
M  V30 18 1 3 17
M  V30 19 1 8 18
M  V30 20 1 8 19
M  V30 21 1 10 20
M  V30 22 1 11 21
M  V30 23 1 12 22
M  V30 24 1 12 23
M  V30 25 1 13 24
M  V30 26 1 13 25
M  V30 27 1 14 26
M  V30 28 1 14 27
M  V30 29 1 14 28
M  V30 END BOND
M  V30 END CTAB
M  END
