
     RDKit          3D

  0  0  0  0  0  0  0  0  0  0999 V3000
M  V30 BEGIN CTAB
M  V30 COUNTS 27 28 0 0 0
M  V30 BEGIN ATOM
M  V30 1 Br -7.0059 0.449763 -0.0803664 0
M  V30 2 C -5.1386 0.0840714 -0.030083 0
M  V30 3 C -4.65338 -0.950125 -0.811374 0
M  V30 4 C -3.28521 -1.23048 -0.785018 0
M  V30 5 C -2.43156 -0.489691 0.00594224 0
M  V30 6 N -2.95694 0.495744 0.738255 0
M  V30 7 C -4.2617 0.81259 0.754975 0
M  V30 8 N -1.02381 -0.78594 0.0264986 0
M  V30 9 N -0.257162 0.219427 -0.152444 0
M  V30 10 C 1.14197 0.160841 -0.170437 0
M  V30 11 C 1.78248 -0.33325 -1.28572 0
M  V30 12 C 3.15342 -0.422004 -1.37757 0
M  V30 13 C 3.89263 0.011293 -0.287118 0
M  V30 14 C 3.24692 0.505053 0.826929 0
M  V30 15 C 1.86832 0.592908 0.915978 0
M  V30 16 N 1.26468 1.11206 2.09379 0
M  V30 17 N 5.30882 -0.0778411 -0.375955 0
M  V30 18 H -5.32727 -1.52762 -1.4296 0
M  V30 19 H -2.92502 -2.05119 -1.40983 0
M  V30 20 H -4.68639 1.60975 1.34744 0
M  V30 21 H 1.17061 -0.660618 -2.11419 0
M  V30 22 H 3.60846 -0.813581 -2.26601 0
M  V30 23 H 3.84194 0.841959 1.67654 0
M  V30 24 H 1.03157 2.12464 2.18488 0
M  V30 25 H 1.03388 0.500313 2.90699 0
M  V30 26 H 5.75375 -0.922406 -0.789631 0
M  V30 27 H 5.85348 0.744346 -0.00549532 0
M  V30 END ATOM
M  V30 BEGIN BOND
M  V30 1 1 1 2
M  V30 2 2 2 3
M  V30 3 1 3 4
M  V30 4 2 4 5
M  V30 5 1 5 6
M  V30 6 2 6 7
M  V30 7 1 5 8
M  V30 8 2 8 9
M  V30 9 1 9 10
M  V30 10 2 10 11
M  V30 11 1 11 12
M  V30 12 2 12 13
M  V30 13 1 13 14
M  V30 14 2 14 15
M  V30 15 1 15 16
M  V30 16 1 13 17
M  V30 17 1 7 2
M  V30 18 1 15 10
M  V30 19 1 3 18
M  V30 20 1 4 19
M  V30 21 1 7 20
M  V30 22 1 11 21
M  V30 23 1 12 22
M  V30 24 1 14 23
M  V30 25 1 16 24
M  V30 26 1 16 25
M  V30 27 1 17 26
M  V30 28 1 17 27
M  V30 END BOND
M  V30 END CTAB
M  END
