
     RDKit          3D

  0  0  0  0  0  0  0  0  0  0999 V3000
M  V30 BEGIN CTAB
M  V30 COUNTS 21 22 0 0 0
M  V30 BEGIN ATOM
M  V30 1 N 3.7142 -0.752969 -0.128698 0
M  V30 2 C 2.56285 0.0515596 0.0712115 0
M  V30 3 C 2.68283 1.38923 0.340274 0
M  V30 4 C 1.52047 2.10654 0.522728 0
M  V30 5 N 0.309889 1.53111 0.443048 0
M  V30 6 C 0.154377 0.221073 0.180723 0
M  V30 7 C 1.30389 -0.505463 -0.00321116 0
M  V30 8 C -1.19561 -0.403194 0.0953966 0
M  V30 9 C -1.32939 -1.74384 -0.173858 0
M  V30 10 S -3.03402 -1.92817 -0.158459 0
M  V30 11 C -3.45827 -0.310679 0.184606 0
M  V30 12 N -2.28191 0.28062 0.268627 0
M  V30 13 N -4.76878 0.268507 0.343461 0
M  V30 14 H 4.48971 -0.69347 0.560969 0
M  V30 15 H 3.76021 -1.38366 -0.957046 0
M  V30 16 H 3.66628 1.83757 0.401103 0
M  V30 17 H 1.64627 3.17355 0.736404 0
M  V30 18 H 1.22165 -1.5571 -0.215122 0
M  V30 19 H -0.541349 -2.49883 -0.352346 0
M  V30 20 H -5.54582 -0.108891 -0.214619 0
M  V30 21 H -4.87745 1.02651 0.999074 0
M  V30 END ATOM
M  V30 BEGIN BOND
M  V30 1 1 1 2
M  V30 2 2 2 3
M  V30 3 1 3 4
M  V30 4 2 4 5
M  V30 5 1 5 6
M  V30 6 2 6 7
M  V30 7 1 6 8
M  V30 8 2 8 9
M  V30 9 1 9 10
M  V30 10 1 10 11
M  V30 11 2 11 12
M  V30 12 1 11 13
M  V30 13 1 7 2
M  V30 14 1 12 8
M  V30 15 1 1 14
M  V30 16 1 1 15
M  V30 17 1 3 16
M  V30 18 1 4 17
M  V30 19 1 7 18
M  V30 20 1 9 19
M  V30 21 1 13 20
M  V30 22 1 13 21
M  V30 END BOND
M  V30 END CTAB
M  END
