
     RDKit          3D

  0  0  0  0  0  0  0  0  0  0999 V3000
M  V30 BEGIN CTAB
M  V30 COUNTS 51 54 0 0 0
M  V30 BEGIN ATOM
M  V30 1 N 7.81953 0.18026 0.089429 0
M  V30 2 C 6.64077 -0.649332 -0.0208709 0
M  V30 3 C 5.64757 -0.176033 -1.08568 0
M  V30 4 C 4.55101 -0.643905 -0.117456 0
M  V30 5 C 5.56065 -0.346328 1.00085 0
M  V30 6 C 3.35821 0.188078 -0.102301 0
M  V30 7 C 2.10366 -0.373919 -0.163865 0
M  V30 8 C 0.948556 0.377003 -0.151442 0
M  V30 9 N 1.14591 1.72145 -0.0732865 0
M  V30 10 C 2.35893 2.28717 -0.0125039 0
M  V30 11 N 3.45882 1.51987 -0.0272244 0
M  V30 12 N 2.52595 3.71301 0.0688633 0
M  V30 13 N -0.362504 -0.135423 -0.210818 0
M  V30 14 C -1.47295 0.791682 -0.203981 0
M  V30 15 C -2.49551 0.332665 0.8185 0
M  V30 16 N -2.84368 -1.04323 0.66955 0
M  V30 17 C -1.71395 -1.91986 0.772808 0
M  V30 18 C -0.660411 -1.54147 -0.278115 0
M  V30 19 C -3.68973 -1.35428 -0.434895 0
M  V30 20 C -4.9778 -0.642248 -0.295829 0
M  V30 21 C -5.61012 -0.14905 -1.42749 0
M  V30 22 C -6.8124 0.522065 -1.39226 0
M  V30 23 C -7.40489 0.704285 -0.156832 0
M  V30 24 C -6.81913 0.233988 1.00133 0
M  V30 25 C -5.61415 -0.431672 0.9091 0
M  V30 26 H 8.65843 -0.44323 0.0146446 0
M  V30 27 H 7.83129 0.749393 0.958936 0
M  V30 28 H 6.85774 -1.73715 -0.126562 0
M  V30 29 H 5.70683 0.924509 -1.15732 0
M  V30 30 H 5.67775 -0.738122 -2.02247 0
M  V30 31 H 4.41877 -1.726 -0.180375 0
M  V30 32 H 5.58632 0.717921 1.30292 0
M  V30 33 H 5.50694 -1.03749 1.846 0
M  V30 34 H 2.0332 -1.43506 -0.223763 0
M  V30 35 H 2.19121 4.24931 -0.767818 0
M  V30 36 H 2.95219 4.15571 0.910803 0
M  V30 37 H -1.14863 1.81134 0.125582 0
M  V30 38 H -1.94427 0.892015 -1.20604 0
M  V30 39 H -3.36786 0.981188 0.809008 0
M  V30 40 H -2.01347 0.45169 1.81998 0
M  V30 41 H -1.26645 -1.94701 1.77912 0
M  V30 42 H -2.04254 -2.94445 0.497191 0
M  V30 43 H -1.19096 -1.72277 -1.2609 0
M  V30 44 H 0.190555 -2.21492 -0.18576 0
M  V30 45 H -3.22903 -1.09592 -1.42055 0
M  V30 46 H -3.87372 -2.44801 -0.462636 0
M  V30 47 H -5.14187 -0.295419 -2.38543 0
M  V30 48 H -7.28414 0.899207 -2.31153 0
M  V30 49 H -8.34766 1.23141 -0.134814 0
M  V30 50 H -7.27022 0.368712 1.97523 0
M  V30 51 H -5.13273 -0.81166 1.806 0
M  V30 END ATOM
M  V30 BEGIN BOND
M  V30 1 1 1 2
M  V30 2 1 2 3
M  V30 3 1 3 4
M  V30 4 1 4 5
M  V30 5 1 4 6
M  V30 6 2 6 7
M  V30 7 1 7 8
M  V30 8 2 8 9
M  V30 9 1 9 10
M  V30 10 2 10 11
M  V30 11 1 10 12
M  V30 12 1 8 13
M  V30 13 1 13 14
M  V30 14 1 14 15
M  V30 15 1 15 16
M  V30 16 1 16 17
M  V30 17 1 17 18
M  V30 18 1 16 19
M  V30 19 1 19 20
M  V30 20 2 20 21
M  V30 21 1 21 22
M  V30 22 2 22 23
M  V30 23 1 23 24
M  V30 24 2 24 25
M  V30 25 1 5 2
M  V30 26 1 11 6
M  V30 27 1 18 13
M  V30 28 1 25 20
M  V30 29 1 1 26
M  V30 30 1 1 27
M  V30 31 1 2 28
M  V30 32 1 3 29
M  V30 33 1 3 30
M  V30 34 1 4 31
M  V30 35 1 5 32
M  V30 36 1 5 33
M  V30 37 1 7 34
M  V30 38 1 12 35
M  V30 39 1 12 36
M  V30 40 1 14 37
M  V30 41 1 14 38
M  V30 42 1 15 39
M  V30 43 1 15 40
M  V30 44 1 17 41
M  V30 45 1 17 42
M  V30 46 1 18 43
M  V30 47 1 18 44
M  V30 48 1 19 45
M  V30 49 1 19 46
M  V30 50 1 21 47
M  V30 51 1 22 48
M  V30 52 1 23 49
M  V30 53 1 24 50
M  V30 54 1 25 51
M  V30 END BOND
M  V30 END CTAB
M  END
