
     RDKit          3D

  0  0  0  0  0  0  0  0  0  0999 V3000
M  V30 BEGIN CTAB
M  V30 COUNTS 18 18 0 0 0
M  V30 BEGIN ATOM
M  V30 1 N -2.47505 0.707647 0.137534 0
M  V30 2 C -1.53378 -0.317992 -0.033689 0
M  V30 3 C -0.247278 -0.0426328 -0.00322264 0
M  V30 4 C 0.767024 -1.1062 -0.181155 0
M  V30 5 C 2.06214 -0.847765 -0.153384 0
M  V30 6 I 3.49852 -2.38217 -0.409819 0
M  V30 7 C 2.46628 0.536792 0.0609564 0
M  V30 8 O 3.70627 0.807048 0.0911511 0
M  V30 9 C 1.46849 1.58726 0.236659 0
M  V30 10 C 0.170645 1.33791 0.21034 0
M  V30 11 I 2.04934 3.60234 0.548735 0
M  V30 12 N -1.94138 -1.6563 -0.240622 0
M  V30 13 H -2.61846 1.40175 -0.617298 0
M  V30 14 H -3.03663 0.794366 1.00225 0
M  V30 15 H 0.462096 -2.1231 -0.338494 0
M  V30 16 H -0.582037 2.11303 0.340142 0
M  V30 17 H -2.74956 -1.92662 -0.869592 0
M  V30 18 H -1.46661 -2.48536 0.219508 0
M  V30 END ATOM
M  V30 BEGIN BOND
M  V30 1 1 1 2
M  V30 2 2 2 3 CFG=2
M  V30 3 1 3 4
M  V30 4 2 4 5
M  V30 5 1 5 6
M  V30 6 1 5 7
M  V30 7 2 7 8
M  V30 8 1 7 9
M  V30 9 2 9 10
M  V30 10 1 9 11
M  V30 11 1 2 12
M  V30 12 1 10 3
M  V30 13 1 1 13
M  V30 14 1 1 14
M  V30 15 1 4 15
M  V30 16 1 10 16
M  V30 17 1 12 17
M  V30 18 1 12 18
M  V30 END BOND
M  V30 END CTAB
M  END
