
     RDKit          3D

  0  0  0  0  0  0  0  0  0  0999 V3000
M  V30 BEGIN CTAB
M  V30 COUNTS 23 23 0 0 0
M  V30 BEGIN ATOM
M  V30 1 C -3.97315 0.151411 -0.0753368 0
M  V30 2 O -2.56283 0.2104 -0.0539233 0
M  V30 3 C -1.74582 -0.895276 0.00207489 0
M  V30 4 O -2.28407 -2.03098 0.0364756 0
M  V30 5 C -0.292957 -0.753962 0.0210593 0
M  V30 6 C 0.508116 -1.87368 0.0773799 0
M  V30 7 C 1.88911 -1.79995 0.0978029 0
M  V30 8 C 2.46343 -0.553757 0.0597922 0
M  V30 9 C 1.71653 0.602409 0.00298485 0
M  V30 10 C 0.327975 0.47589 -0.0155488 0
M  V30 11 N -0.484116 1.63754 -0.0736996 0
M  V30 12 N 2.35 1.86657 -0.034689 0
M  V30 13 C 3.89054 -0.411794 0.0783723 0
M  V30 14 N 5.05769 -0.285016 0.100543 0
M  V30 15 H -4.43956 1.00326 -0.573022 0
M  V30 16 H -4.31972 0.164762 0.990577 0
M  V30 17 H -4.26113 -0.804868 -0.567794 0
M  V30 18 H 0.0734206 -2.86141 0.10786 0
M  V30 19 H 2.51566 -2.69113 0.142438 0
M  V30 20 H -0.636202 2.26554 0.736256 0
M  V30 21 H -0.956142 1.88211 -0.968778 0
M  V30 22 H 3.32436 1.97287 -0.345116 0
M  V30 23 H 1.83887 2.72904 0.254292 0
M  V30 END ATOM
M  V30 BEGIN BOND
M  V30 1 1 1 2
M  V30 2 1 2 3
M  V30 3 2 3 4
M  V30 4 1 3 5
M  V30 5 2 5 6
M  V30 6 1 6 7
M  V30 7 2 7 8
M  V30 8 1 8 9
M  V30 9 2 9 10
M  V30 10 1 10 11
M  V30 11 1 9 12
M  V30 12 1 8 13
M  V30 13 3 13 14
M  V30 14 1 10 5
M  V30 15 1 1 15
M  V30 16 1 1 16
M  V30 17 1 1 17
M  V30 18 1 6 18
M  V30 19 1 7 19
M  V30 20 1 11 20
M  V30 21 1 11 21
M  V30 22 1 12 22
M  V30 23 1 12 23
M  V30 END BOND
M  V30 END CTAB
M  END
