
     RDKit          3D

  0  0  0  0  0  0  0  0  0  0999 V3000
M  V30 BEGIN CTAB
M  V30 COUNTS 19 19 0 0 0
M  V30 BEGIN ATOM
M  V30 1 N 2.57335 1.24458 -0.713698 0
M  V30 2 N 2.42914 0.177202 0.0959961 0
M  V30 3 C 1.44433 -0.4718 0.503249 0
M  V30 4 C 0.0862032 -0.169597 0.141347 0
M  V30 5 C -0.24336 0.870454 -0.692005 0
M  V30 6 C -1.58986 1.12987 -1.01971 0
M  V30 7 C -2.61973 0.37736 -0.536992 0
M  V30 8 C -2.2954 -0.660377 0.294074 0
M  V30 9 C -0.975417 -0.933805 0.630077 0
M  V30 10 Br -0.682212 -2.40958 1.79588 0
M  V30 11 Cl -4.28105 0.739834 -0.974002 0
M  V30 12 N 1.69244 -1.59781 1.39538 0
M  V30 13 H 2.5796 2.26085 -0.389143 0
M  V30 14 H 2.70656 1.16077 -1.76948 0
M  V30 15 H 0.480388 1.5358 -1.13654 0
M  V30 16 H -1.77715 1.96694 -1.68304 0
M  V30 17 H -3.10164 -1.26401 0.68317 0
M  V30 18 H 1.84705 -2.50309 0.939369 0
M  V30 19 H 1.72676 -1.45359 2.43606 0
M  V30 END ATOM
M  V30 BEGIN BOND
M  V30 1 1 1 2
M  V30 2 2 2 3
M  V30 3 1 3 4
M  V30 4 2 4 5
M  V30 5 1 5 6
M  V30 6 2 6 7
M  V30 7 1 7 8
M  V30 8 2 8 9
M  V30 9 1 9 10
M  V30 10 1 7 11
M  V30 11 1 3 12
M  V30 12 1 9 4
M  V30 13 1 1 13
M  V30 14 1 1 14
M  V30 15 1 5 15
M  V30 16 1 6 16
M  V30 17 1 8 17
M  V30 18 1 12 18
M  V30 19 1 12 19
M  V30 END BOND
M  V30 END CTAB
M  END
