
     RDKit          3D

  0  0  0  0  0  0  0  0  0  0999 V3000
M  V30 BEGIN CTAB
M  V30 COUNTS 14 13 0 0 0
M  V30 BEGIN ATOM
M  V30 1 N 1.47165 -0.377393 0.934704 0
M  V30 2 C 1.19807 0.0334123 -0.38201 0
M  V30 3 N 2.10237 -0.0950875 -1.28345 0
M  V30 4 N -0.0692236 0.592311 -0.737524 0
M  V30 5 C -1.25872 0.347751 -0.0184836 0
M  V30 6 N -1.95051 -0.891271 -0.0905808 0
M  V30 7 N -1.79785 1.24926 0.759938 0
M  V30 8 H 1.58017 0.32162 1.67936 0
M  V30 9 H 1.56214 -1.37955 1.14672 0
M  V30 10 H 3.01525 -0.498609 -1.02333 0
M  V30 11 H -0.127388 1.21641 -1.57292 0
M  V30 12 H -1.8109 -1.54772 0.705232 0
M  V30 13 H -2.57398 -1.17382 -0.874452 0
M  V30 14 H -1.34107 2.20269 0.868019 0
M  V30 END ATOM
M  V30 BEGIN BOND
M  V30 1 1 1 2
M  V30 2 2 2 3 CFG=2
M  V30 3 1 2 4
M  V30 4 1 4 5
M  V30 5 1 5 6
M  V30 6 2 5 7 CFG=2
M  V30 7 1 1 8
M  V30 8 1 1 9
M  V30 9 1 3 10
M  V30 10 1 4 11
M  V30 11 1 6 12
M  V30 12 1 6 13
M  V30 13 1 7 14
M  V30 END BOND
M  V30 END CTAB
M  END
