
     RDKit          3D

  0  0  0  0  0  0  0  0  0  0999 V3000
M  V30 BEGIN CTAB
M  V30 COUNTS 30 30 0 0 0
M  V30 BEGIN ATOM
M  V30 1 N -2.88805 2.36993 -0.962182 0
M  V30 2 N -2.39751 1.50207 0.000325753 0
M  V30 3 C -1.00687 1.14105 0.0533333 0
M  V30 4 O -0.243103 1.63362 -0.798028 0
M  V30 5 C -0.47212 0.22572 1.06583 0
M  V30 6 C 0.975911 -0.140776 0.911379 0
M  V30 7 C 1.27868 -0.81098 -0.348253 0
M  V30 8 C 2.7627 -0.858276 -0.573591 0
M  V30 9 S 3.2816 0.708497 0.0814421 0
M  V30 10 O 3.41315 1.75042 -0.971154 0
M  V30 11 O 4.53848 0.614402 0.859028 0
M  V30 12 C 1.87613 1.02852 1.14825 0
M  V30 13 C -1.35167 -0.981836 1.14192 0
M  V30 14 O -1.844 -1.31892 2.26254 0
M  V30 15 N -1.67394 -1.78459 0.0282171 0
M  V30 16 N -2.49625 -2.89376 0.177974 0
M  V30 17 H -2.10666 3.04425 -1.217 0
M  V30 18 H -3.67737 2.96017 -0.624559 0
M  V30 19 H -3.04878 1.09989 0.703579 0
M  V30 20 H -0.625243 0.749217 2.07256 0
M  V30 21 H 1.18668 -0.871628 1.75645 0
M  V30 22 H 0.778453 -0.477451 -1.26755 0
M  V30 23 H 0.967071 -1.89565 -0.241034 0
M  V30 24 H 2.96918 -0.848141 -1.65042 0
M  V30 25 H 3.27897 -1.65085 -0.0409394 0
M  V30 26 H 2.24219 1.05834 2.19059 0
M  V30 27 H 1.49358 2.00705 0.884689 0
M  V30 28 H -1.30433 -1.55352 -0.909999 0
M  V30 29 H -2.4209 -3.20939 1.16976 0
M  V30 30 H -3.48597 -2.59737 0.036675 0
M  V30 END ATOM
M  V30 BEGIN BOND
M  V30 1 1 1 2
M  V30 2 1 2 3
M  V30 3 2 3 4
M  V30 4 1 3 5
M  V30 5 1 5 6
M  V30 6 1 6 7
M  V30 7 1 7 8
M  V30 8 1 8 9
M  V30 9 2 9 10
M  V30 10 2 9 11
M  V30 11 1 9 12
M  V30 12 1 5 13
M  V30 13 2 13 14
M  V30 14 1 13 15
M  V30 15 1 15 16
M  V30 16 1 12 6
M  V30 17 1 1 17
M  V30 18 1 1 18
M  V30 19 1 2 19
M  V30 20 1 5 20
M  V30 21 1 6 21
M  V30 22 1 7 22
M  V30 23 1 7 23
M  V30 24 1 8 24
M  V30 25 1 8 25
M  V30 26 1 12 26
M  V30 27 1 12 27
M  V30 28 1 15 28
M  V30 29 1 16 29
M  V30 30 1 16 30
M  V30 END BOND
M  V30 END CTAB
M  END
