
     RDKit          3D

  0  0  0  0  0  0  0  0  0  0999 V3000
M  V30 BEGIN CTAB
M  V30 COUNTS 51 54 0 0 0
M  V30 BEGIN ATOM
M  V30 1 C 1.71905 -0.48507 -3.29005 0
M  V30 2 N 1.10989 0.366974 -2.27683 0
M  V30 3 C 1.8336 1.55235 -1.91965 0
M  V30 4 C 3.18423 1.27941 -1.36236 0
M  V30 5 N 3.34136 0.977353 -0.0482987 0
M  V30 6 C 4.54938 0.729358 0.482379 0
M  V30 7 C 4.68672 0.424548 1.82042 0
M  V30 8 N 3.56176 0.362409 2.67756 0
M  V30 9 N 5.90717 0.180316 2.32828 0
M  V30 10 C 7.0248 0.221161 1.57217 0
M  V30 11 N 8.29209 -0.0468622 2.16629 0
M  V30 12 N 6.88259 0.5189 0.269313 0
M  V30 13 C 5.67337 0.775454 -0.301313 0
M  V30 14 N 5.53669 1.06984 -1.5905 0
M  V30 15 C 4.32962 1.31941 -2.12884 0
M  V30 16 C -0.13582 -0.0172358 -1.71829 0
M  V30 17 C -0.750577 -1.16391 -2.13484 0
M  V30 18 C -1.95414 -1.61446 -1.65426 0
M  V30 19 C -2.62373 -0.875844 -0.672176 0
M  V30 20 C -2.01664 0.291823 -0.235236 0
M  V30 21 C -0.786316 0.707209 -0.759129 0
M  V30 22 C -3.88215 -1.37747 -0.212175 0
M  V30 23 O -4.29741 -2.46031 -0.816763 0
M  V30 24 N -4.77308 -0.938703 0.768486 0
M  V30 25 C -6.04032 -1.70132 0.991517 0
M  V30 26 C -7.1193 -0.650401 0.878603 0
M  V30 27 O -7.05415 0.146482 2.00441 0
M  V30 28 C -5.83912 0.195497 2.62342 0
M  V30 29 C -4.64874 0.185182 1.65272 0
M  V30 30 H 2.56647 -0.0351516 -3.79909 0
M  V30 31 H 1.89985 -1.45911 -2.83172 0
M  V30 32 H 0.933227 -0.628948 -4.0889 0
M  V30 33 H 1.32505 2.24804 -1.2573 0
M  V30 34 H 2.01076 2.14121 -2.87228 0
M  V30 35 H 2.66493 0.815733 2.42107 0
M  V30 36 H 3.61688 -0.141219 3.58313 0
M  V30 37 H 8.44669 0.069621 3.18266 0
M  V30 38 H 9.09623 -0.367284 1.59097 0
M  V30 39 H 4.24684 1.56182 -3.2 0
M  V30 40 H -0.259741 -1.77896 -2.90726 0
M  V30 41 H -2.38979 -2.54842 -2.03581 0
M  V30 42 H -2.48193 0.911504 0.513763 0
M  V30 43 H -0.375974 1.6122 -0.380449 0
M  V30 44 H -6.13237 -2.48418 0.223049 0
M  V30 45 H -5.98741 -2.16625 1.97887 0
M  V30 46 H -6.93323 -0.053357 -0.0421838 0
M  V30 47 H -8.12053 -1.11481 0.847231 0
M  V30 48 H -5.72894 -0.656436 3.30252 0
M  V30 49 H -5.69554 1.11201 3.24389 0
M  V30 50 H -3.71561 0.15523 2.28517 0
M  V30 51 H -4.69668 1.13777 1.12779 0
M  V30 END ATOM
M  V30 BEGIN BOND
M  V30 1 1 1 2
M  V30 2 1 2 3
M  V30 3 1 3 4
M  V30 4 2 4 5
M  V30 5 1 5 6
M  V30 6 2 6 7
M  V30 7 1 7 8
M  V30 8 1 7 9
M  V30 9 2 9 10
M  V30 10 1 10 11
M  V30 11 1 10 12
M  V30 12 2 12 13
M  V30 13 1 13 14
M  V30 14 2 14 15
M  V30 15 1 2 16
M  V30 16 2 16 17
M  V30 17 1 17 18
M  V30 18 2 18 19
M  V30 19 1 19 20
M  V30 20 2 20 21
M  V30 21 1 19 22
M  V30 22 2 22 23
M  V30 23 1 22 24
M  V30 24 1 24 25
M  V30 25 1 25 26
M  V30 26 1 26 27
M  V30 27 1 27 28
M  V30 28 1 28 29
M  V30 29 1 15 4
M  V30 30 1 21 16
M  V30 31 1 29 24
M  V30 32 1 13 6
M  V30 33 1 1 30
M  V30 34 1 1 31
M  V30 35 1 1 32
M  V30 36 1 3 33
M  V30 37 1 3 34
M  V30 38 1 8 35
M  V30 39 1 8 36
M  V30 40 1 11 37
M  V30 41 1 11 38
M  V30 42 1 15 39
M  V30 43 1 17 40
M  V30 44 1 18 41
M  V30 45 1 20 42
M  V30 46 1 21 43
M  V30 47 1 25 44
M  V30 48 1 25 45
M  V30 49 1 26 46
M  V30 50 1 26 47
M  V30 51 1 28 48
M  V30 52 1 28 49
M  V30 53 1 29 50
M  V30 54 1 29 51
M  V30 END BOND
M  V30 END CTAB
M  END
