
     RDKit          3D

  0  0  0  0  0  0  0  0  0  0999 V3000
M  V30 BEGIN CTAB
M  V30 COUNTS 35 37 0 0 0
M  V30 BEGIN ATOM
M  V30 1 C -3.41082 -1.91288 2.17403 0
M  V30 2 C -2.16583 -1.05739 1.8647 0
M  V30 3 O -2.66743 0.239132 2.12382 0
M  V30 4 C -1.83177 -1.09808 0.451321 0
M  V30 5 C -2.6945 -1.77239 -0.437916 0
M  V30 6 C -2.45499 -1.85612 -1.78823 0
M  V30 7 C -1.32209 -1.25405 -2.29186 0
M  V30 8 C -0.442107 -0.577015 -1.44904 0
M  V30 9 C -0.708211 -0.503929 -0.0657963 0
M  V30 10 C 0.234892 0.208853 0.767551 0
M  V30 11 O 0.0631341 0.313399 1.99741 0
M  V30 12 C 1.44872 0.854986 0.23989 0
M  V30 13 C 1.67216 0.760532 -1.11666 0
M  V30 14 C 2.81041 1.36526 -1.61773 0
M  V30 15 N 3.04923 1.27158 -3.0086 0
M  V30 16 C 3.70255 2.03865 -0.83329 0
M  V30 17 C 3.46306 2.12201 0.515185 0
M  V30 18 C 2.32503 1.52772 1.07833 0
M  V30 19 N 2.05445 1.59517 2.4692 0
M  V30 20 C 0.752947 0.054812 -1.9948 0
M  V30 21 O 1.01344 0.00228857 -3.23725 0
M  V30 22 H -4.31221 -1.49755 1.74203 0
M  V30 23 H -3.54101 -1.94965 3.28004 0
M  V30 24 H -3.28318 -2.95691 1.85752 0
M  V30 25 H -1.40942 -1.19512 2.61591 0
M  V30 26 H -3.47129 0.429961 1.59376 0
M  V30 27 H -3.56409 -2.22272 0.00212102 0
M  V30 28 H -3.14707 -2.38626 -2.4353 0
M  V30 29 H -1.08038 -1.28481 -3.33244 0
M  V30 30 H 2.81509 2.00367 -3.71199 0
M  V30 31 H 3.49696 0.399653 -3.36446 0
M  V30 32 H 4.56988 2.4936 -1.24833 0
M  V30 33 H 4.10993 2.63334 1.21875 0
M  V30 34 H 1.67919 2.46313 2.90096 0
M  V30 35 H 2.24532 0.747152 3.04117 0
M  V30 END ATOM
M  V30 BEGIN BOND
M  V30 1 1 1 2
M  V30 2 1 2 3
M  V30 3 1 2 4
M  V30 4 2 4 5
M  V30 5 1 5 6
M  V30 6 2 6 7
M  V30 7 1 7 8
M  V30 8 2 8 9
M  V30 9 1 9 10
M  V30 10 2 10 11
M  V30 11 1 10 12
M  V30 12 2 12 13
M  V30 13 1 13 14
M  V30 14 1 14 15
M  V30 15 2 14 16
M  V30 16 1 16 17
M  V30 17 2 17 18
M  V30 18 1 18 19
M  V30 19 1 13 20
M  V30 20 2 20 21
M  V30 21 1 9 4
M  V30 22 1 18 12
M  V30 23 1 20 8
M  V30 24 1 1 22
M  V30 25 1 1 23
M  V30 26 1 1 24
M  V30 27 1 2 25
M  V30 28 1 3 26
M  V30 29 1 5 27
M  V30 30 1 6 28
M  V30 31 1 7 29
M  V30 32 1 15 30
M  V30 33 1 15 31
M  V30 34 1 16 32
M  V30 35 1 17 33
M  V30 36 1 19 34
M  V30 37 1 19 35
M  V30 END BOND
M  V30 END CTAB
M  END
