
     RDKit          3D

  0  0  0  0  0  0  0  0  0  0999 V3000
M  V30 BEGIN CTAB
M  V30 COUNTS 26 26 0 0 0
M  V30 BEGIN ATOM
M  V30 1 Cl -2.47906 3.02697 0.946639 0
M  V30 2 C -2.35268 1.44613 1.75443 0
M  V30 3 C -2.4392 0.324474 0.808599 0
M  V30 4 O -3.52355 -0.241507 0.542429 0
M  V30 5 C -1.2323 -0.164182 0.143538 0
M  V30 6 C 0.00655566 0.403864 0.370037 0
M  V30 7 C 1.15263 -0.045398 -0.252805 0
M  V30 8 C 2.42513 0.606927 0.0384952 0
M  V30 9 O 3.45185 0.180653 -0.539574 0
M  V30 10 C 2.56531 1.73934 0.976852 0
M  V30 11 Cl 4.24376 2.24657 1.05775 0
M  V30 12 C 1.10197 -1.09778 -1.14105 0
M  V30 13 C -0.141317 -1.65757 -1.35959 0
M  V30 14 C -1.29193 -1.2247 -0.749737 0
M  V30 15 N -2.53272 -1.85445 -1.02943 0
M  V30 16 N 2.25912 -1.59251 -1.80511 0
M  V30 17 H -3.23318 1.41274 2.46994 0
M  V30 18 H -1.45726 1.42023 2.40665 0
M  V30 19 H 0.0449818 1.24106 1.0747 0
M  V30 20 H 1.88819 2.59181 0.67741 0
M  V30 21 H 2.23989 1.48201 2.00476 0
M  V30 22 H -0.178592 -2.49645 -2.0689 0
M  V30 23 H -3.17035 -1.44549 -1.73639 0
M  V30 24 H -2.7654 -2.7221 -0.505357 0
M  V30 25 H 2.96169 -2.14208 -1.26883 0
M  V30 26 H 2.45646 -1.43858 -2.81548 0
M  V30 END ATOM
M  V30 BEGIN BOND
M  V30 1 1 1 2
M  V30 2 1 2 3
M  V30 3 2 3 4
M  V30 4 1 3 5
M  V30 5 2 5 6
M  V30 6 1 6 7
M  V30 7 1 7 8
M  V30 8 2 8 9
M  V30 9 1 8 10
M  V30 10 1 10 11
M  V30 11 2 7 12
M  V30 12 1 12 13
M  V30 13 2 13 14
M  V30 14 1 14 15
M  V30 15 1 12 16
M  V30 16 1 14 5
M  V30 17 1 2 17
M  V30 18 1 2 18
M  V30 19 1 6 19
M  V30 20 1 10 20
M  V30 21 1 10 21
M  V30 22 1 13 22
M  V30 23 1 15 23
M  V30 24 1 15 24
M  V30 25 1 16 25
M  V30 26 1 16 26
M  V30 END BOND
M  V30 END CTAB
M  END
