
     RDKit          3D

  0  0  0  0  0  0  0  0  0  0999 V3000
M  V30 BEGIN CTAB
M  V30 COUNTS 26 27 0 0 0
M  V30 BEGIN ATOM
M  V30 1 N 3.71775 1.04607 1.37675 0
M  V30 2 C 2.8724 0.190343 0.60955 0
M  V30 3 C 3.41348 -0.924562 0.00382579 0
M  V30 4 C 2.62293 -1.77141 -0.74435 0
M  V30 5 C 1.2568 -1.50894 -0.898762 0
M  V30 6 C 0.698437 -0.399606 -0.30092 0
M  V30 7 C 1.5335 0.414086 0.436087 0
M  V30 8 C -0.735519 -0.0934324 -0.444549 0
M  V30 9 C -1.46766 0.2648 0.665733 0
M  V30 10 C -2.80886 0.55324 0.5537 0
M  V30 11 N -3.57223 0.92433 1.69715 0
M  V30 12 C -3.4804 0.497769 -0.668694 0
M  V30 13 C -2.70592 0.134959 -1.74925 0
M  V30 14 C -1.37018 -0.155804 -1.65824 0
M  V30 15 F -0.638394 -0.509407 -2.75235 0
M  V30 16 F -3.31783 0.0673809 -2.9625 0
M  V30 17 F -4.80413 0.785095 -0.763695 0
M  V30 18 H 4.48013 0.625308 1.95003 0
M  V30 19 H 3.62405 2.07535 1.40354 0
M  V30 20 H 4.48681 -1.13134 0.12477 0
M  V30 21 H 3.08579 -2.63423 -1.20252 0
M  V30 22 H 0.680227 -2.18493 -1.48156 0
M  V30 23 H 1.12766 1.3065 0.927467 0
M  V30 24 H -0.968883 0.317778 1.64238 0
M  V30 25 H -4.53039 0.539083 1.81908 0
M  V30 26 H -3.19959 1.57158 2.41736 0
M  V30 END ATOM
M  V30 BEGIN BOND
M  V30 1 1 1 2
M  V30 2 2 2 3
M  V30 3 1 3 4
M  V30 4 2 4 5
M  V30 5 1 5 6
M  V30 6 2 6 7
M  V30 7 1 6 8
M  V30 8 2 8 9
M  V30 9 1 9 10
M  V30 10 1 10 11
M  V30 11 2 10 12
M  V30 12 1 12 13
M  V30 13 2 13 14
M  V30 14 1 14 15
M  V30 15 1 13 16
M  V30 16 1 12 17
M  V30 17 1 7 2
M  V30 18 1 14 8
M  V30 19 1 1 18
M  V30 20 1 1 19
M  V30 21 1 3 20
M  V30 22 1 4 21
M  V30 23 1 5 22
M  V30 24 1 7 23
M  V30 25 1 9 24
M  V30 26 1 11 25
M  V30 27 1 11 26
M  V30 END BOND
M  V30 END CTAB
M  END
