
     RDKit          3D

  0  0  0  0  0  0  0  0  0  0999 V3000
M  V30 BEGIN CTAB
M  V30 COUNTS 19 18 0 0 0
M  V30 BEGIN ATOM
M  V30 1 N -2.35252 0.457512 0.391099 0
M  V30 2 C -1.55007 -0.125211 -0.663147 0
M  V30 3 C -0.466379 -1.00607 -0.0794357 0
M  V30 4 C 0.461742 -0.245704 0.825973 0
M  V30 5 O 1.41306 -1.14025 1.30593 0
M  V30 6 C 1.21275 0.831657 0.0694901 0
M  V30 7 N 1.95994 0.290763 -1.02487 0
M  V30 8 H -2.82854 1.33992 0.07367 0
M  V30 9 H -3.06596 -0.250232 0.670386 0
M  V30 10 H -2.16562 -0.774419 -1.31795 0
M  V30 11 H -1.14246 0.695302 -1.27347 0
M  V30 12 H -0.95619 -1.79132 0.527001 0
M  V30 13 H 0.145546 -1.42315 -0.902437 0
M  V30 14 H -0.0892025 0.163172 1.67087 0
M  V30 15 H 2.11921 -0.584235 1.74177 0
M  V30 16 H 0.549656 1.61998 -0.314771 0
M  V30 17 H 1.87086 1.33373 0.831038 0
M  V30 18 H 2.18467 0.980264 -1.75446 0
M  V30 19 H 2.69951 -0.371708 -0.776685 0
M  V30 END ATOM
M  V30 BEGIN BOND
M  V30 1 1 1 2
M  V30 2 1 2 3
M  V30 3 1 3 4
M  V30 4 1 4 5
M  V30 5 1 4 6
M  V30 6 1 6 7
M  V30 7 1 1 8
M  V30 8 1 1 9
M  V30 9 1 2 10
M  V30 10 1 2 11
M  V30 11 1 3 12
M  V30 12 1 3 13
M  V30 13 1 4 14
M  V30 14 1 5 15
M  V30 15 1 6 16
M  V30 16 1 6 17
M  V30 17 1 7 18
M  V30 18 1 7 19
M  V30 END BOND
M  V30 END CTAB
M  END
