
     RDKit          3D

  0  0  0  0  0  0  0  0  0  0999 V3000
M  V30 BEGIN CTAB
M  V30 COUNTS 49 51 0 0 0
M  V30 BEGIN ATOM
M  V30 1 N -7.49547 -0.315104 0.598183 0
M  V30 2 C -6.10346 -0.350382 0.2833 0
M  V30 3 C -5.44674 0.954769 -0.0565874 0
M  V30 4 C -4.6964 0.208289 -1.1646 0
M  V30 5 C -5.78622 -0.817149 -1.13001 0
M  V30 6 C -3.40441 -0.330516 -0.723527 0
M  V30 7 C -2.2563 0.448562 -0.662049 0
M  V30 8 C -1.07044 -0.0919899 -0.230598 0
M  V30 9 N -1.06674 -1.38267 0.121095 0
M  V30 10 C -2.16423 -2.17399 0.0730667 0
M  V30 11 N -3.30977 -1.61338 -0.352299 0
M  V30 12 N -2.13678 -3.52877 0.439774 0
M  V30 13 N 0.0682497 0.76351 -0.155238 0
M  V30 14 C 1.15862 0.603565 -1.05706 0
M  V30 15 C 2.43599 0.0362453 -0.514529 0
M  V30 16 C 2.99724 0.836657 0.596455 0
M  V30 17 O 4.20771 0.443151 1.13169 0
M  V30 18 C 5.44952 0.328356 0.669391 0
M  V30 19 C 5.85237 0.629639 -0.607057 0
M  V30 20 C 7.18843 0.479106 -1.00228 0
M  V30 21 C 8.12205 0.0287178 -0.124897 0
M  V30 22 C 7.73985 -0.277446 1.15414 0
M  V30 23 C 6.44265 -0.131648 1.53966 0
M  V30 24 Cl 6.02289 -0.542522 3.18757 0
M  V30 25 C -0.0150447 1.77334 0.902908 0
M  V30 26 H -7.85008 0.630516 0.845129 0
M  V30 27 H -8.10358 -0.88814 -0.000667603 0
M  V30 28 H -5.50454 -0.865996 1.06494 0
M  V30 29 H -4.79833 1.38313 0.726137 0
M  V30 30 H -6.07977 1.733 -0.506221 0
M  V30 31 H -4.65131 0.79504 -2.09957 0
M  V30 32 H -6.61403 -0.704897 -1.8494 0
M  V30 33 H -5.45168 -1.89124 -1.04651 0
M  V30 34 H -2.34607 1.47159 -0.963265 0
M  V30 35 H -2.23127 -4.2627 -0.284377 0
M  V30 36 H -2.02277 -3.81786 1.4269 0
M  V30 37 H 0.834393 0.0629939 -1.99216 0
M  V30 38 H 1.36619 1.65555 -1.4595 0
M  V30 39 H 3.11131 -0.131597 -1.38233 0
M  V30 40 H 2.16129 -1.01693 -0.177994 0
M  V30 41 H 2.26442 0.770457 1.45153 0
M  V30 42 H 3.05579 1.89162 0.288862 0
M  V30 43 H 5.15748 1.00007 -1.34168 0
M  V30 44 H 7.47721 0.721245 -2.00585 0
M  V30 45 H 9.14442 -0.0727702 -0.466736 0
M  V30 46 H 8.49035 -0.63763 1.85401 0
M  V30 47 H 0.809132 2.49638 0.822069 0
M  V30 48 H -0.0105743 1.30569 1.89869 0
M  V30 49 H -0.941536 2.39413 0.750363 0
M  V30 END ATOM
M  V30 BEGIN BOND
M  V30 1 1 1 2
M  V30 2 1 2 3
M  V30 3 1 3 4
M  V30 4 1 4 5
M  V30 5 1 4 6
M  V30 6 2 6 7
M  V30 7 1 7 8
M  V30 8 2 8 9
M  V30 9 1 9 10
M  V30 10 2 10 11
M  V30 11 1 10 12
M  V30 12 1 8 13
M  V30 13 1 13 14
M  V30 14 1 14 15
M  V30 15 1 15 16
M  V30 16 1 16 17
M  V30 17 1 17 18
M  V30 18 2 18 19
M  V30 19 1 19 20
M  V30 20 2 20 21
M  V30 21 1 21 22
M  V30 22 2 22 23
M  V30 23 1 23 24
M  V30 24 1 13 25
M  V30 25 1 5 2
M  V30 26 1 11 6
M  V30 27 1 23 18
M  V30 28 1 1 26
M  V30 29 1 1 27
M  V30 30 1 2 28
M  V30 31 1 3 29
M  V30 32 1 3 30
M  V30 33 1 4 31
M  V30 34 1 5 32
M  V30 35 1 5 33
M  V30 36 1 7 34
M  V30 37 1 12 35
M  V30 38 1 12 36
M  V30 39 1 14 37
M  V30 40 1 14 38
M  V30 41 1 15 39
M  V30 42 1 15 40
M  V30 43 1 16 41
M  V30 44 1 16 42
M  V30 45 1 19 43
M  V30 46 1 20 44
M  V30 47 1 21 45
M  V30 48 1 22 46
M  V30 49 1 25 47
M  V30 50 1 25 48
M  V30 51 1 25 49
M  V30 END BOND
M  V30 END CTAB
M  END
