
     RDKit          3D

  0  0  0  0  0  0  0  0  0  0999 V3000
M  V30 BEGIN CTAB
M  V30 COUNTS 20 20 0 0 0
M  V30 BEGIN ATOM
M  V30 1 N -3.41947 0.105554 -0.320433 0
M  V30 2 C -2.01461 0.00221288 -0.236482 0
M  V30 3 C -1.20756 1.00772 0.249752 0
M  V30 4 C 0.165845 0.909385 0.332904 0
M  V30 5 N 0.975743 1.97018 0.842122 0
M  V30 6 C 0.79617 -0.244449 -0.0849782 0
M  V30 7 C 0.0148404 -1.27007 -0.57716 0
M  V30 8 C -1.35872 -1.16137 -0.656066 0
M  V30 9 S 2.54175 -0.353131 0.0274157 0
M  V30 10 O 3.08053 -1.82529 -0.529701 0
M  V30 11 O 2.88088 -0.202893 1.50346 0
M  V30 12 O 3.13902 0.768598 -0.756067 0
M  V30 13 H -3.845 1.03065 -0.513324 0
M  V30 14 H -4.03014 -0.720734 -0.193693 0
M  V30 15 H -1.68563 1.92147 0.582599 0
M  V30 16 H 1.49433 2.6335 0.21424 0
M  V30 17 H 1.03771 2.068 1.88083 0
M  V30 18 H 0.518773 -2.16988 -0.901915 0
M  V30 19 H -1.98293 -1.96256 -1.04179 0
M  V30 20 H 2.89847 -2.5069 0.178287 0
M  V30 END ATOM
M  V30 BEGIN BOND
M  V30 1 1 1 2
M  V30 2 2 2 3
M  V30 3 1 3 4
M  V30 4 1 4 5
M  V30 5 2 4 6
M  V30 6 1 6 7
M  V30 7 2 7 8
M  V30 8 1 6 9
M  V30 9 1 9 10
M  V30 10 2 9 11
M  V30 11 2 9 12
M  V30 12 1 8 2
M  V30 13 1 1 13
M  V30 14 1 1 14
M  V30 15 1 3 15
M  V30 16 1 5 16
M  V30 17 1 5 17
M  V30 18 1 7 18
M  V30 19 1 8 19
M  V30 20 1 10 20
M  V30 END BOND
M  V30 END CTAB
M  END
