
     RDKit          3D

  0  0  0  0  0  0  0  0  0  0999 V3000
M  V30 BEGIN CTAB
M  V30 COUNTS 27 27 0 0 0
M  V30 BEGIN ATOM
M  V30 1 N 3.40435 1.00357 -0.891222 0
M  V30 2 C 2.67819 0.641363 0.264725 0
M  V30 3 C 1.23918 0.250086 -0.117175 0
M  V30 4 C 0.836029 -1.04867 -0.167686 0
M  V30 5 C -0.493969 -1.38906 -0.133556 0
M  V30 6 C -0.932384 -2.80089 -0.487362 0
M  V30 7 N -1.71919 -3.4781 0.469032 0
M  V30 8 C -1.5091 -0.370798 -0.0835238 0
M  V30 9 C -1.1135 1.02596 -0.0594622 0
M  V30 10 C 0.300921 1.19305 -0.0700862 0
M  V30 11 O -2.01547 1.95144 -0.076765 0
M  V30 12 C -1.54218 3.35862 -0.304758 0
M  V30 13 O -2.77239 -0.636005 -0.0244814 0
M  V30 14 H 3.49259 2.04673 -1.04751 0
M  V30 15 H 4.26986 0.467562 -0.890667 0
M  V30 16 H 3.17228 -0.135352 0.857073 0
M  V30 17 H 2.6327 1.50281 1.02286 0
M  V30 18 H 1.61634 -1.81002 -0.272164 0
M  V30 19 H -1.13305 -2.90281 -1.53895 0
M  V30 20 H 0.114431 -3.38655 -0.321326 0
M  V30 21 H -1.4465 -3.35901 1.43135 0
M  V30 22 H -1.90072 -4.45313 0.0924152 0
M  V30 23 H 0.689423 2.28364 -0.143995 0
M  V30 24 H -2.18358 4.00019 0.342899 0
M  V30 25 H -1.45197 3.59684 -1.27437 0
M  V30 26 H -0.546212 3.31706 0.355059 0
M  V30 27 H -3.68608 -0.86849 0.0194735 0
M  V30 END ATOM
M  V30 BEGIN BOND
M  V30 1 1 1 2
M  V30 2 1 2 3
M  V30 3 2 3 4
M  V30 4 1 4 5
M  V30 5 1 5 6
M  V30 6 1 6 7
M  V30 7 2 5 8
M  V30 8 1 8 9
M  V30 9 2 9 10
M  V30 10 1 9 11
M  V30 11 1 11 12
M  V30 12 1 8 13
M  V30 13 1 10 3
M  V30 14 1 1 14
M  V30 15 1 1 15
M  V30 16 1 2 16
M  V30 17 1 2 17
M  V30 18 1 4 18
M  V30 19 1 6 19
M  V30 20 1 6 20
M  V30 21 1 7 21
M  V30 22 1 7 22
M  V30 23 1 10 23
M  V30 24 1 12 24
M  V30 25 1 12 25
M  V30 26 1 12 26
M  V30 27 1 13 27
M  V30 END BOND
M  V30 END CTAB
M  END
