
     RDKit          3D

  0  0  0  0  0  0  0  0  0  0999 V3000
M  V30 BEGIN CTAB
M  V30 COUNTS 52 51 0 0 0
M  V30 BEGIN ATOM
M  V30 1 N -6.92208 1.37034 1.03429 0
M  V30 2 C -7.05217 0.237782 0.192016 0
M  V30 3 N -7.72521 0.423236 -0.920572 0
M  V30 4 N -6.50599 -0.99726 0.541459 0
M  V30 5 C -5.246 -1.2035 1.16105 0
M  V30 6 C -4.06146 -0.939858 0.301218 0
M  V30 7 C -3.89787 0.428244 -0.231611 0
M  V30 8 C -2.65108 0.607246 -1.07632 0
M  V30 9 C -1.37139 0.33599 -0.315265 0
M  V30 10 C -0.247968 0.565283 -1.26817 0
M  V30 11 C 1.13879 0.354781 -0.666475 0
M  V30 12 C 1.31303 -1.02369 -0.183157 0
M  V30 13 C 2.58861 -1.32908 0.481044 0
M  V30 14 C 3.86332 -1.20108 -0.201236 0
M  V30 15 C 4.36167 0.110858 -0.639952 0
M  V30 16 C 4.52359 1.09371 0.521371 0
M  V30 17 N 5.46797 0.574125 1.48676 0
M  V30 18 C 6.83569 0.458796 1.16306 0
M  V30 19 N 7.55169 1.56956 0.670513 0
M  V30 20 N 7.43155 -0.662836 1.31764 0
M  V30 21 H -7.28014 1.33736 2.0065 0
M  V30 22 H -6.47224 2.24153 0.6969 0
M  V30 23 H -7.8634 -0.37405 -1.59697 0
M  V30 24 H -7.10741 -1.8488 0.310599 0
M  V30 25 H -5.19151 -2.29763 1.47584 0
M  V30 26 H -5.16864 -0.649476 2.14352 0
M  V30 27 H -4.07305 -1.66005 -0.577288 0
M  V30 28 H -3.11978 -1.2302 0.869162 0
M  V30 29 H -3.93056 1.18262 0.584702 0
M  V30 30 H -4.73842 0.692472 -0.930336 0
M  V30 31 H -2.58816 1.59669 -1.53308 0
M  V30 32 H -2.75879 -0.118395 -1.934 0
M  V30 33 H -1.32347 1.0974 0.495436 0
M  V30 34 H -1.37055 -0.64268 0.162579 0
M  V30 35 H -0.342192 -0.155448 -2.1036 0
M  V30 36 H -0.345256 1.59825 -1.66651 0
M  V30 37 H 1.42241 1.14902 0.0131353 0
M  V30 38 H 1.79677 0.460578 -1.58935 0
M  V30 39 H 0.453981 -1.29481 0.520954 0
M  V30 40 H 1.12959 -1.78738 -1.02121 0
M  V30 41 H 2.66623 -0.747758 1.48256 0
M  V30 42 H 2.54735 -2.40848 0.887364 0
M  V30 43 H 3.86193 -1.8866 -1.11039 0
M  V30 44 H 4.66636 -1.64062 0.48691 0
M  V30 45 H 3.91647 0.607726 -1.47413 0
M  V30 46 H 5.46082 -0.0443108 -0.97739 0
M  V30 47 H 3.5832 1.28547 1.02502 0
M  V30 48 H 4.90635 2.0357 0.0560109 0
M  V30 49 H 5.15372 0.277508 2.4329 0
M  V30 50 H 7.1404 2.3829 0.185271 0
M  V30 51 H 8.59503 1.59715 0.794564 0
M  V30 52 H 6.97829 -1.52835 1.67423 0
M  V30 END ATOM
M  V30 BEGIN BOND
M  V30 1 1 1 2
M  V30 2 2 2 3 CFG=2
M  V30 3 1 2 4
M  V30 4 1 4 5
M  V30 5 1 5 6
M  V30 6 1 6 7
M  V30 7 1 7 8
M  V30 8 1 8 9
M  V30 9 1 9 10
M  V30 10 1 10 11
M  V30 11 1 11 12
M  V30 12 1 12 13
M  V30 13 1 13 14
M  V30 14 1 14 15
M  V30 15 1 15 16
M  V30 16 1 16 17
M  V30 17 1 17 18
M  V30 18 1 18 19
M  V30 19 2 18 20 CFG=2
M  V30 20 1 1 21
M  V30 21 1 1 22
M  V30 22 1 3 23
M  V30 23 1 4 24
M  V30 24 1 5 25
M  V30 25 1 5 26
M  V30 26 1 6 27
M  V30 27 1 6 28
M  V30 28 1 7 29
M  V30 29 1 7 30
M  V30 30 1 8 31
M  V30 31 1 8 32
M  V30 32 1 9 33
M  V30 33 1 9 34
M  V30 34 1 10 35
M  V30 35 1 10 36
M  V30 36 1 11 37
M  V30 37 1 11 38
M  V30 38 1 12 39
M  V30 39 1 12 40
M  V30 40 1 13 41
M  V30 41 1 13 42
M  V30 42 1 14 43
M  V30 43 1 14 44
M  V30 44 1 15 45
M  V30 45 1 15 46
M  V30 46 1 16 47
M  V30 47 1 16 48
M  V30 48 1 17 49
M  V30 49 1 19 50
M  V30 50 1 19 51
M  V30 51 1 20 52
M  V30 END BOND
M  V30 END CTAB
M  END
