
     RDKit          3D

  0  0  0  0  0  0  0  0  0  0999 V3000
M  V30 BEGIN CTAB
M  V30 COUNTS 139 141 0 0 0
M  V30 BEGIN ATOM
M  V30 1 C 3.2715 1.44352 -4.2833 0
M  V30 2 C 2.01814 2.11933 -3.70889 0
M  V30 3 C 2.13237 2.25689 -2.21777 0 CFG=2
M  V30 4 C 3.33143 3.02027 -1.7621 0
M  V30 5 C 1.78811 1.02773 -1.41872 0 CFG=2
M  V30 6 N 0.450702 0.556213 -1.48992 0
M  V30 7 C -0.73783 1.06996 -1.99003 0
M  V30 8 O -0.851879 2.19034 -2.50377 0
M  V30 9 C -1.99019 0.272451 -1.93222 0 CFG=1
M  V30 10 N -3.16362 1.01084 -2.34986 0
M  V30 11 C -4.3167 1.06116 -1.54474 0
M  V30 12 O -4.29253 0.418598 -0.447422 0
M  V30 13 C -5.57741 1.80161 -1.85103 0 CFG=1
M  V30 14 N -6.60787 1.09467 -1.17937 0
M  V30 15 C -7.94251 1.24956 -0.844391 0
M  V30 16 O -8.70206 2.18217 -1.0439 0
M  V30 17 C -8.62457 0.0729016 -0.0992834 0 CFG=2
M  V30 18 C -9.03468 -0.828517 -1.26378 0
M  V30 19 C -9.69232 -2.09095 -0.810027 0
M  V30 20 C -8.74409 -2.93125 0.0346529 0
M  V30 21 N -9.36832 -4.16197 0.4553 0
M  V30 22 C -10.4371 -4.13332 1.36957 0
M  V30 23 N -11.7746 -4.11297 0.871482 0
M  V30 24 N -10.2366 -4.13018 2.62162 0
M  V30 25 N -9.78725 0.509657 0.596629 0
M  V30 26 C -9.96238 0.338107 2.00339 0
M  V30 27 O -9.05222 -0.225603 2.65285 0
M  V30 28 C -11.1457 0.778704 2.74606 0 CFG=1
M  V30 29 N -12.0874 1.52207 1.93681 0
M  V30 30 C -11.9304 -0.407503 3.33912 0
M  V30 31 C -13.1006 0.175721 4.05976 0
M  V30 32 O -14.3867 0.160362 3.522 0
M  V30 33 O -12.9555 0.704666 5.19102 0
M  V30 34 C -5.36496 3.24303 -1.32509 0
M  V30 35 C -6.46213 4.19137 -1.59007 0
M  V30 36 C -4.00047 3.77173 -1.67954 0
M  V30 37 C -1.8318 -1.05248 -2.66567 0
M  V30 38 C -1.56587 -0.826822 -4.1329 0
M  V30 39 O -2.90637 -1.89018 -2.47896 0
M  V30 40 C 2.39099 1.06335 -0.0679242 0
M  V30 41 O 1.78072 1.50589 0.937758 0
M  V30 42 N 3.71213 0.583918 0.149126 0
M  V30 43 C 4.3823 0.603675 1.42851 0 CFG=1
M  V30 44 C 3.71566 -0.37771 2.37669 0
M  V30 45 C 3.66856 -1.77043 1.96566 0
M  V30 46 C 3.20605 -2.78166 2.8333 0
M  V30 47 N 3.24946 -3.93521 2.18646 0
M  V30 48 C 3.71057 -3.74876 0.949395 0
M  V30 49 N 3.96288 -2.41009 0.831873 0
M  V30 50 C 5.82366 0.35381 1.38283 0
M  V30 51 O 6.25487 -0.0631519 0.269892 0
M  V30 52 N 6.7298 0.539586 2.45886 0
M  V30 53 C 6.34194 1.1412 3.76698 0
M  V30 54 C 7.52404 1.99549 4.09255 0
M  V30 55 C 8.69183 1.18818 3.61357 0
M  V30 56 C 8.08105 0.168944 2.65414 0 CFG=2
M  V30 57 C 8.90613 0.0623961 1.43682 0
M  V30 58 O 8.77785 0.668121 0.35592 0
M  V30 59 N 10.0228 -0.863619 1.45916 0
M  V30 60 C 10.9015 -1.08202 0.317313 0 CFG=1
M  V30 61 C 12.2639 -0.649366 0.760763 0
M  V30 62 C 13.2618 -0.833093 -0.289833 0
M  V30 63 C 13.4423 0.173666 -1.24184 0
M  V30 64 C 14.3998 -0.0398906 -2.18528 0
M  V30 65 C 15.1683 -1.17579 -2.22768 0
M  V30 66 C 14.9669 -2.16654 -1.26274 0
M  V30 67 C 14.0229 -1.9907 -0.308232 0
M  V30 68 C 10.775 -2.46008 -0.162527 0
M  V30 69 O 11.398 -2.92193 -1.29338 0
M  V30 70 O 10.0579 -3.31876 0.462715 0
M  V30 71 H 4.03372 2.21974 -4.5281 0
M  V30 72 H 2.96708 0.973394 -5.23527 0
M  V30 73 H 3.60655 0.675345 -3.5943 0
M  V30 74 H 1.73057 3.00173 -4.2596 0
M  V30 75 H 1.22709 1.32766 -3.90778 0
M  V30 76 H 1.26505 2.98437 -1.95163 0
M  V30 77 H 4.30218 2.61794 -2.13018 0
M  V30 78 H 3.2511 4.03486 -2.22513 0
M  V30 79 H 3.28112 3.18409 -0.680603 0
M  V30 80 H 2.38861 0.226952 -2.00999 0
M  V30 81 H 0.297015 -0.45403 -1.05053 0
M  V30 82 H -2.13935 -0.0221281 -0.866912 0
M  V30 83 H -3.10503 1.48525 -3.2688 0
M  V30 84 H -5.76085 1.92539 -2.91888 0
M  V30 85 H -6.23407 0.0914497 -0.837675 0
M  V30 86 H -7.915 -0.421595 0.53039 0
M  V30 87 H -9.86629 -0.2335 -1.77238 0
M  V30 88 H -8.2161 -0.990741 -1.97721 0
M  V30 89 H -9.94629 -2.73287 -1.69202 0
M  V30 90 H -10.6381 -1.91677 -0.257296 0
M  V30 91 H -7.86106 -3.17718 -0.603079 0
M  V30 92 H -8.38397 -2.36608 0.893865 0
M  V30 93 H -9.01652 -5.07129 0.0701419 0
M  V30 94 H -12.0179 -4.47259 -0.075362 0
M  V30 95 H -12.5622 -3.72841 1.44963 0
M  V30 96 H -9.27905 -4.14812 3.00874 0
M  V30 97 H -10.5788 0.989407 0.0850317 0
M  V30 98 H -10.7949 1.36879 3.6154 0
M  V30 99 H -12.7495 1.99065 2.60473 0
M  V30 100 H -12.6874 0.884749 1.3572 0
M  V30 101 H -11.3316 -0.977263 4.04885 0
M  V30 102 H -12.3283 -1.02866 2.53307 0
M  V30 103 H -14.6736 0.571331 2.67038 0
M  V30 104 H -5.32372 3.08999 -0.195606 0
M  V30 105 H -5.96455 5.14412 -2.01217 0
M  V30 106 H -7.10076 3.82437 -2.41687 0
M  V30 107 H -7.01789 4.4391 -0.686133 0
M  V30 108 H -3.21957 3.21028 -1.10663 0
M  V30 109 H -4.00053 4.84703 -1.39951 0
M  V30 110 H -3.85933 3.67827 -2.77034 0
M  V30 111 H -0.952515 -1.55438 -2.19744 0
M  V30 112 H -1.09072 0.191459 -4.28192 0
M  V30 113 H -2.44388 -0.963747 -4.78333 0
M  V30 114 H -0.766422 -1.55698 -4.44118 0
M  V30 115 H -3.73818 -1.42889 -2.7598 0
M  V30 116 H 4.26864 0.198927 -0.643686 0
M  V30 117 H 4.18703 1.60849 1.88956 0
M  V30 118 H 4.19324 -0.32084 3.38114 0
M  V30 119 H 2.64789 -0.0625835 2.58741 0
M  V30 120 H 2.86824 -2.64732 3.86459 0
M  V30 121 H 3.85274 -4.50403 0.193661 0
M  V30 122 H 4.31944 -2.03711 -0.0449583 0
M  V30 123 H 5.41302 1.72054 3.63093 0
M  V30 124 H 6.15454 0.376916 4.52621 0
M  V30 125 H 7.49119 3.01005 3.63878 0
M  V30 126 H 7.55268 2.06994 5.21356 0
M  V30 127 H 9.25788 0.707976 4.44022 0
M  V30 128 H 9.34046 1.8735 2.99713 0
M  V30 129 H 8.10307 -0.852761 3.1625 0
M  V30 130 H 10.2381 -1.41262 2.30928 0
M  V30 131 H 10.599 -0.421536 -0.529532 0
M  V30 132 H 12.2749 0.403977 1.11836 0
M  V30 133 H 12.6178 -1.23736 1.65488 0
M  V30 134 H 12.8158 1.06233 -1.179 0
M  V30 135 H 14.5804 0.717999 -2.95115 0
M  V30 136 H 15.9117 -1.30091 -2.99548 0
M  V30 137 H 15.5442 -3.08772 -1.25888 0
M  V30 138 H 13.8545 -2.76237 0.458784 0
M  V30 139 H 11.1781 -3.74726 -1.81596 0
M  V30 END ATOM
M  V30 BEGIN BOND
M  V30 1 1 1 2
M  V30 2 1 2 3
M  V30 3 1 3 4
M  V30 4 1 3 5
M  V30 5 1 5 6
M  V30 6 1 6 7
M  V30 7 2 7 8
M  V30 8 1 7 9
M  V30 9 1 9 10
M  V30 10 1 10 11
M  V30 11 2 11 12
M  V30 12 1 11 13
M  V30 13 1 13 14
M  V30 14 1 14 15
M  V30 15 2 15 16
M  V30 16 1 15 17
M  V30 17 1 17 18
M  V30 18 1 18 19
M  V30 19 1 19 20
M  V30 20 1 20 21
M  V30 21 1 21 22
M  V30 22 1 22 23
M  V30 23 2 22 24 CFG=2
M  V30 24 1 17 25
M  V30 25 1 25 26
M  V30 26 2 26 27
M  V30 27 1 26 28
M  V30 28 1 28 29
M  V30 29 1 28 30
M  V30 30 1 30 31
M  V30 31 1 31 32
M  V30 32 2 31 33
M  V30 33 1 13 34
M  V30 34 1 34 35
M  V30 35 1 34 36
M  V30 36 1 9 37
M  V30 37 1 37 38
M  V30 38 1 37 39
M  V30 39 1 5 40
M  V30 40 2 40 41
M  V30 41 1 40 42
M  V30 42 1 42 43
M  V30 43 1 43 44
M  V30 44 1 44 45
M  V30 45 2 45 46
M  V30 46 1 46 47
M  V30 47 2 47 48
M  V30 48 1 48 49
M  V30 49 1 43 50
M  V30 50 2 50 51
M  V30 51 1 50 52
M  V30 52 1 52 53
M  V30 53 1 53 54
M  V30 54 1 54 55
M  V30 55 1 55 56
M  V30 56 1 56 57
M  V30 57 2 57 58
M  V30 58 1 57 59
M  V30 59 1 59 60
M  V30 60 1 60 61
M  V30 61 1 61 62
M  V30 62 2 62 63
M  V30 63 1 63 64
M  V30 64 2 64 65
M  V30 65 1 65 66
M  V30 66 2 66 67
M  V30 67 1 60 68
M  V30 68 1 68 69
M  V30 69 2 68 70
M  V30 70 1 49 45
M  V30 71 1 56 52
M  V30 72 1 67 62
M  V30 73 1 1 71
M  V30 74 1 1 72
M  V30 75 1 1 73
M  V30 76 1 2 74
M  V30 77 1 2 75
M  V30 78 1 3 76 CFG=1
M  V30 79 1 4 77
M  V30 80 1 4 78
M  V30 81 1 4 79
M  V30 82 1 5 80 CFG=3
M  V30 83 1 6 81
M  V30 84 1 9 82 CFG=1
M  V30 85 1 10 83
M  V30 86 1 13 84 CFG=3
M  V30 87 1 14 85
M  V30 88 1 17 86 CFG=1
M  V30 89 1 18 87
M  V30 90 1 18 88
M  V30 91 1 19 89
M  V30 92 1 19 90
M  V30 93 1 20 91
M  V30 94 1 20 92
M  V30 95 1 21 93
M  V30 96 1 23 94
M  V30 97 1 23 95
M  V30 98 1 24 96
M  V30 99 1 25 97
M  V30 100 1 28 98 CFG=1
M  V30 101 1 29 99
M  V30 102 1 29 100
M  V30 103 1 30 101
M  V30 104 1 30 102
M  V30 105 1 32 103
M  V30 106 1 34 104
M  V30 107 1 35 105
M  V30 108 1 35 106
M  V30 109 1 35 107
M  V30 110 1 36 108
M  V30 111 1 36 109
M  V30 112 1 36 110
M  V30 113 1 37 111
M  V30 114 1 38 112
M  V30 115 1 38 113
M  V30 116 1 38 114
M  V30 117 1 39 115
M  V30 118 1 42 116
M  V30 119 1 43 117 CFG=1
M  V30 120 1 44 118
M  V30 121 1 44 119
M  V30 122 1 46 120
M  V30 123 1 48 121
M  V30 124 1 49 122
M  V30 125 1 53 123
M  V30 126 1 53 124
M  V30 127 1 54 125
M  V30 128 1 54 126
M  V30 129 1 55 127
M  V30 130 1 55 128
M  V30 131 1 56 129 CFG=1
M  V30 132 1 59 130
M  V30 133 1 60 131 CFG=3
M  V30 134 1 61 132
M  V30 135 1 61 133
M  V30 136 1 63 134
M  V30 137 1 64 135
M  V30 138 1 65 136
M  V30 139 1 66 137
M  V30 140 1 67 138
M  V30 141 1 69 139
M  V30 END BOND
M  V30 END CTAB
M  END
