
     RDKit          3D

  0  0  0  0  0  0  0  0  0  0999 V3000
M  V30 BEGIN CTAB
M  V30 COUNTS 29 30 0 0 0
M  V30 BEGIN ATOM
M  V30 1 N 3.0577 2.36296 -0.905614 0
M  V30 2 C 2.52432 1.11073 -0.545847 0
M  V30 3 N 3.352 0.0497482 -0.377158 0
M  V30 4 C 2.89626 -1.16588 -0.0345044 0
M  V30 5 N 3.85593 -2.20152 0.114014 0
M  V30 6 N 1.57378 -1.33436 0.146968 0
M  V30 7 C 0.686781 -0.337443 9.69831e-05 0
M  V30 8 C 1.18832 0.89764 -0.35214 0
M  V30 9 N -0.721277 -0.547327 0.200651 0
M  V30 10 C -1.48447 -1.72645 0.567303 0
M  V30 11 C -2.67693 -1.121 -0.0968576 0
M  V30 12 C -1.94301 0.178984 0.154725 0
M  V30 13 C -2.40447 0.806998 1.43973 0
M  V30 14 C -2.12676 1.09727 -1.03411 0
M  V30 15 H 4.06614 2.54851 -0.891654 0
M  V30 16 H 2.40409 3.11433 -1.19196 0
M  V30 17 H 4.00416 -2.64884 1.04452 0
M  V30 18 H 4.44344 -2.5592 -0.667802 0
M  V30 19 H 0.491637 1.7223 -0.477561 0
M  V30 20 H -1.51656 -1.80706 1.67494 0
M  V30 21 H -1.06766 -2.6369 0.0820315 0
M  V30 22 H -3.5799 -1.26068 0.532043 0
M  V30 23 H -2.76221 -1.42967 -1.14866 0
M  V30 24 H -1.67386 0.673026 2.26818 0
M  V30 25 H -3.39149 0.390012 1.74947 0
M  V30 26 H -2.59507 1.91095 1.30335 0
M  V30 27 H -1.39898 0.789035 -1.80663 0
M  V30 28 H -2.02748 2.14997 -0.71969 0
M  V30 29 H -3.17445 0.973833 -1.39536 0
M  V30 END ATOM
M  V30 BEGIN BOND
M  V30 1 1 1 2
M  V30 2 2 2 3
M  V30 3 1 3 4
M  V30 4 1 4 5
M  V30 5 2 4 6
M  V30 6 1 6 7
M  V30 7 2 7 8
M  V30 8 1 7 9
M  V30 9 1 9 10
M  V30 10 1 10 11
M  V30 11 1 11 12
M  V30 12 1 12 13
M  V30 13 1 12 14
M  V30 14 1 8 2
M  V30 15 1 12 9
M  V30 16 1 1 15
M  V30 17 1 1 16
M  V30 18 1 5 17
M  V30 19 1 5 18
M  V30 20 1 8 19
M  V30 21 1 10 20
M  V30 22 1 10 21
M  V30 23 1 11 22
M  V30 24 1 11 23
M  V30 25 1 13 24
M  V30 26 1 13 25
M  V30 27 1 13 26
M  V30 28 1 14 27
M  V30 29 1 14 28
M  V30 30 1 14 29
M  V30 END BOND
M  V30 END CTAB
M  END
