
     RDKit          3D

  0  0  0  0  0  0  0  0  0  0999 V3000
M  V30 BEGIN CTAB
M  V30 COUNTS 57 60 0 0 0
M  V30 BEGIN ATOM
M  V30 1 N 6.55426 1.19673 -2.14906 0
M  V30 2 C 7.18241 0.608135 -1.05427 0 CFG=1
M  V30 3 C 6.65448 -0.764432 -0.689121 0
M  V30 4 C 5.21656 -0.71032 -0.339221 0
M  V30 5 C 4.83721 -0.458878 0.991161 0
M  V30 6 C 3.51807 -0.370428 1.36248 0
M  V30 7 C 2.46958 -0.525411 0.419334 0
M  V30 8 C 2.84481 -0.770928 -0.853787 0
M  V30 9 C 4.19458 -0.864426 -1.23455 0
M  V30 10 C 1.1067 -0.337903 0.909061 0
M  V30 11 N 0.922195 0.150711 2.17321 0
M  V30 12 C -0.266729 0.343568 2.70251 0
M  V30 13 N -0.462167 0.848594 4.04006 0
M  V30 14 N -1.3328 0.0471045 1.96265 0
M  V30 15 C -1.29348 -0.442821 0.701079 0
M  V30 16 O -2.49903 -0.697873 0.0683151 0
M  V30 17 C -3.74518 -0.440433 0.652483 0
M  V30 18 C -4.38124 0.72805 0.171658 0
M  V30 19 C -4.14885 1.98247 0.734324 0
M  V30 20 C -4.5863 3.18457 0.206847 0
M  V30 21 C -5.30517 3.17106 -0.957712 0
M  V30 22 C -5.56986 1.97875 -1.55856 0
M  V30 23 C -5.10988 0.767169 -0.990902 0
M  V30 24 N -5.57462 -0.416919 -1.55813 0
M  V30 25 C -6.80331 -0.860802 -1.21528 0
M  V30 26 C -7.09296 -2.00801 -1.90844 0
M  V30 27 C -5.9831 -2.25531 -2.69948 0
M  V30 28 N -5.12125 -1.22674 -2.4097 0
M  V30 29 C -4.28458 -1.55035 1.41469 0
M  V30 30 F -4.47984 -2.75556 0.722556 0
M  V30 31 F -5.39399 -1.23715 2.20038 0
M  V30 32 F -3.36613 -1.98774 2.35012 0
M  V30 33 C -0.0318867 -0.628076 0.197424 0
M  V30 34 C 8.65287 0.482442 -1.23998 0
M  V30 35 O 9.42808 -0.0176389 -0.212669 0
M  V30 36 O 9.22699 0.810015 -2.29299 0
M  V30 37 H 7.02759 1.94234 -2.57808 0
M  V30 38 H 5.91605 0.708728 -2.6947 0
M  V30 39 H 7.06323 1.30043 -0.178634 0
M  V30 40 H 7.26766 -1.1562 0.178405 0
M  V30 41 H 6.83608 -1.47519 -1.50427 0
M  V30 42 H 5.64569 -0.343239 1.6766 0
M  V30 43 H 3.22389 -0.187425 2.38076 0
M  V30 44 H 2.05644 -0.904137 -1.59407 0
M  V30 45 H 4.41822 -1.06321 -2.28614 0
M  V30 46 H -0.050508 0.25372 4.8208 0
M  V30 47 H -0.945308 1.70012 4.30012 0
M  V30 48 H -3.26344 0.0941655 1.69075 0
M  V30 49 H -3.58507 2.09314 1.66065 0
M  V30 50 H -4.39081 4.12769 0.665391 0
M  V30 51 H -5.67596 4.0785 -1.42339 0
M  V30 52 H -6.14031 1.90774 -2.50044 0
M  V30 53 H -7.51731 -0.420173 -0.496606 0
M  V30 54 H -7.99357 -2.61967 -1.86468 0
M  V30 55 H -5.86015 -3.07156 -3.36561 0
M  V30 56 H 0.0756775 -1.02268 -0.795487 0
M  V30 57 H 9.91546 -0.914317 -0.229964 0
M  V30 END ATOM
M  V30 BEGIN BOND
M  V30 1 1 1 2
M  V30 2 1 2 3
M  V30 3 1 3 4
M  V30 4 2 4 5
M  V30 5 1 5 6
M  V30 6 2 6 7
M  V30 7 1 7 8
M  V30 8 2 8 9
M  V30 9 1 7 10
M  V30 10 2 10 11
M  V30 11 1 11 12
M  V30 12 1 12 13
M  V30 13 2 12 14
M  V30 14 1 14 15
M  V30 15 1 15 16
M  V30 16 1 16 17
M  V30 17 1 17 18
M  V30 18 2 18 19
M  V30 19 1 19 20
M  V30 20 2 20 21
M  V30 21 1 21 22
M  V30 22 2 22 23
M  V30 23 1 23 24
M  V30 24 1 24 25
M  V30 25 2 25 26
M  V30 26 1 26 27
M  V30 27 2 27 28
M  V30 28 1 17 29
M  V30 29 1 29 30
M  V30 30 1 29 31
M  V30 31 1 29 32
M  V30 32 2 15 33
M  V30 33 1 2 34
M  V30 34 1 34 35
M  V30 35 2 34 36
M  V30 36 1 9 4
M  V30 37 1 33 10
M  V30 38 1 23 18
M  V30 39 1 28 24
M  V30 40 1 1 37
M  V30 41 1 1 38
M  V30 42 1 2 39 CFG=1
M  V30 43 1 3 40
M  V30 44 1 3 41
M  V30 45 1 5 42
M  V30 46 1 6 43
M  V30 47 1 8 44
M  V30 48 1 9 45
M  V30 49 1 13 46
M  V30 50 1 13 47
M  V30 51 1 17 48
M  V30 52 1 19 49
M  V30 53 1 20 50
M  V30 54 1 21 51
M  V30 55 1 22 52
M  V30 56 1 25 53
M  V30 57 1 26 54
M  V30 58 1 27 55
M  V30 59 1 33 56
M  V30 60 1 35 57
M  V30 END BOND
M  V30 END CTAB
M  END
