
     RDKit          3D

  0  0  0  0  0  0  0  0  0  0999 V3000
M  V30 BEGIN CTAB
M  V30 COUNTS 27 28 0 0 0
M  V30 BEGIN ATOM
M  V30 1 C -2.69279 -0.570361 1.1564 0
M  V30 2 C -2.26086 0.492184 0.18853 0
M  V30 3 C -2.91706 0.393684 -1.16726 0
M  V30 4 C -3.38527 1.43815 -0.239341 0
M  V30 5 N -0.976867 1.12016 0.273092 0
M  V30 6 C 0.262881 0.429805 0.147927 0
M  V30 7 C 0.299866 -0.937595 -0.0807038 0
M  V30 8 C 1.50911 -1.59661 -0.198014 0
M  V30 9 C 2.6921 -0.889518 -0.0870661 0
M  V30 10 C 2.64444 0.486527 0.142978 0
M  V30 11 N 1.44605 1.05504 0.245159 0
M  V30 12 N 3.86684 1.1808 0.251509 0
M  V30 13 N 3.93761 -1.5218 -0.200141 0
M  V30 14 H -3.58053 -0.225565 1.70515 0
M  V30 15 H -1.8867 -0.695395 1.93129 0
M  V30 16 H -2.91943 -1.5409 0.681122 0
M  V30 17 H -3.62196 -0.448982 -1.37238 0
M  V30 18 H -2.35867 0.719388 -2.06485 0
M  V30 19 H -4.3745 1.33217 0.275049 0
M  V30 20 H -3.13265 2.51034 -0.402584 0
M  V30 21 H -0.899505 2.16956 0.439493 0
M  V30 22 H -0.605451 -1.53105 -0.17626 0
M  V30 23 H 1.5202 -2.67723 -0.378514 0
M  V30 24 H 4.61436 1.03419 -0.445689 0
M  V30 25 H 4.00296 1.83752 1.0382 0
M  V30 26 H 3.99569 -2.55467 -0.104488 0
M  V30 27 H 4.82013 -1.00983 -0.376827 0
M  V30 END ATOM
M  V30 BEGIN BOND
M  V30 1 1 1 2
M  V30 2 1 2 3
M  V30 3 1 3 4
M  V30 4 1 2 5
M  V30 5 1 5 6
M  V30 6 2 6 7
M  V30 7 1 7 8
M  V30 8 2 8 9
M  V30 9 1 9 10
M  V30 10 2 10 11
M  V30 11 1 10 12
M  V30 12 1 9 13
M  V30 13 1 4 2
M  V30 14 1 11 6
M  V30 15 1 1 14
M  V30 16 1 1 15
M  V30 17 1 1 16
M  V30 18 1 3 17
M  V30 19 1 3 18
M  V30 20 1 4 19
M  V30 21 1 4 20
M  V30 22 1 5 21
M  V30 23 1 7 22
M  V30 24 1 8 23
M  V30 25 1 12 24
M  V30 26 1 12 25
M  V30 27 1 13 26
M  V30 28 1 13 27
M  V30 END BOND
M  V30 END CTAB
M  END
