
     RDKit          3D

  0  0  0  0  0  0  0  0  0  0999 V3000
M  V30 BEGIN CTAB
M  V30 COUNTS 37 37 0 0 0
M  V30 BEGIN ATOM
M  V30 1 C -4.5096 1.62954 0.950668 0
M  V30 2 N -4.08008 0.242277 0.724502 0
M  V30 3 C -2.71296 0.275149 0.349042 0
M  V30 4 C -2.08946 -1.04523 0.0744097 0
M  V30 5 N -0.657262 -0.72692 -0.296995 0
M  V30 6 C 0.264579 -0.686103 0.737625 0
M  V30 7 O -0.226592 -0.928853 1.93168 0
M  V30 8 C 1.67928 -0.423289 0.746307 0
M  V30 9 C 2.35667 -0.43516 1.98462 0
M  V30 10 C 3.69283 -0.196878 2.05169 0
M  V30 11 C 4.46959 0.0666297 0.956237 0
M  V30 12 C 3.81453 0.0785504 -0.245631 0
M  V30 13 C 2.45075 -0.160067 -0.356255 0
M  V30 14 N 4.56472 0.348106 -1.44026 0
M  V30 15 N 5.86538 0.314832 1.03312 0
M  V30 16 C -0.397628 -0.492622 -1.6815 0
M  V30 17 C -4.97195 -0.324417 -0.231418 0
M  V30 18 H -5.61182 1.70654 0.986946 0
M  V30 19 H -4.10546 2.29878 0.144016 0
M  V30 20 H -4.03013 1.93794 1.90327 0
M  V30 21 H -2.14085 0.758304 1.17603 0
M  V30 22 H -2.56986 0.959454 -0.530665 0
M  V30 23 H -2.00743 -1.6398 0.984597 0
M  V30 24 H -2.47686 -1.58308 -0.790261 0
M  V30 25 H 1.76499 -0.643438 2.89096 0
M  V30 26 H 4.20357 -0.208977 3.01386 0
M  V30 27 H 2.02802 -0.130942 -1.3471 0
M  V30 28 H 5.47796 -0.117556 -1.62079 0
M  V30 29 H 4.21217 1.01153 -2.14663 0
M  V30 30 H 6.234 1.1194 1.57676 0
M  V30 31 H 6.52023 -0.326673 0.532454 0
M  V30 32 H 0.239204 -1.26397 -2.17527 0
M  V30 33 H -1.39431 -0.569263 -2.24488 0
M  V30 34 H -0.0643694 0.535665 -1.92584 0
M  V30 35 H -6.01048 -0.145762 0.122018 0
M  V30 36 H -4.90883 0.189219 -1.23434 0
M  V30 37 H -4.87254 -1.42292 -0.346106 0
M  V30 END ATOM
M  V30 BEGIN BOND
M  V30 1 1 1 2
M  V30 2 1 2 3
M  V30 3 1 3 4
M  V30 4 1 4 5
M  V30 5 1 5 6
M  V30 6 2 6 7
M  V30 7 1 6 8
M  V30 8 2 8 9
M  V30 9 1 9 10
M  V30 10 2 10 11
M  V30 11 1 11 12
M  V30 12 2 12 13
M  V30 13 1 12 14
M  V30 14 1 11 15
M  V30 15 1 5 16
M  V30 16 1 2 17
M  V30 17 1 13 8
M  V30 18 1 1 18
M  V30 19 1 1 19
M  V30 20 1 1 20
M  V30 21 1 3 21
M  V30 22 1 3 22
M  V30 23 1 4 23
M  V30 24 1 4 24
M  V30 25 1 9 25
M  V30 26 1 10 26
M  V30 27 1 13 27
M  V30 28 1 14 28
M  V30 29 1 14 29
M  V30 30 1 15 30
M  V30 31 1 15 31
M  V30 32 1 16 32
M  V30 33 1 16 33
M  V30 34 1 16 34
M  V30 35 1 17 35
M  V30 36 1 17 36
M  V30 37 1 17 37
M  V30 END BOND
M  V30 END CTAB
M  END
