
     RDKit          3D

  0  0  0  0  0  0  0  0  0  0999 V3000
M  V30 BEGIN CTAB
M  V30 COUNTS 31 32 0 0 0
M  V30 BEGIN ATOM
M  V30 1 N 0.610375 1.7995 1.26981 0
M  V30 2 N 0.751482 0.491325 0.745709 0
M  V30 3 C -0.333063 -0.405856 0.985542 0
M  V30 4 C -1.61175 -0.056407 0.343122 0
M  V30 5 C -1.80763 1.03705 -0.465485 0
M  V30 6 C -3.04504 1.31316 -1.05436 0
M  V30 7 C -4.09432 0.458231 -0.811847 0
M  V30 8 C -3.93318 -0.653648 -0.00215707 0
M  V30 9 C -2.68814 -0.885257 0.559024 0
M  V30 10 N -2.53202 -2.01695 1.37879 0
M  V30 11 C 1.94188 0.188557 0.0340013 0
M  V30 12 C 2.95367 1.13017 -0.130107 0
M  V30 13 C 4.09818 0.801331 -0.829822 0
M  V30 14 C 4.30161 -0.438841 -1.38991 0
M  V30 15 C 3.30415 -1.37664 -1.23164 0
M  V30 16 C 2.13836 -1.05231 -0.522928 0
M  V30 17 H 0.836901 2.53733 0.602515 0
M  V30 18 H 1.00701 1.8765 2.2105 0
M  V30 19 H -0.549454 -0.31947 2.10185 0
M  V30 20 H -0.0762056 -1.48107 0.869927 0
M  V30 21 H -1.01025 1.7285 -0.685374 0
M  V30 22 H -3.18178 2.18217 -1.69111 0
M  V30 23 H -5.08622 0.637183 -1.25453 0
M  V30 24 H -4.76344 -1.3214 0.183555 0
M  V30 25 H -2.91504 -2.04746 2.33117 0
M  V30 26 H -2.01554 -2.84977 1.01652 0
M  V30 27 H 2.79829 2.10228 0.307414 0
M  V30 28 H 4.87881 1.52802 -0.956239 0
M  V30 29 H 5.20101 -0.703574 -1.94197 0
M  V30 30 H 3.42063 -2.37239 -1.65762 0
M  V30 31 H 1.40069 -1.83026 -0.438192 0
M  V30 END ATOM
M  V30 BEGIN BOND
M  V30 1 1 1 2
M  V30 2 1 2 3
M  V30 3 1 3 4
M  V30 4 2 4 5
M  V30 5 1 5 6
M  V30 6 2 6 7
M  V30 7 1 7 8
M  V30 8 2 8 9
M  V30 9 1 9 10
M  V30 10 1 2 11
M  V30 11 2 11 12
M  V30 12 1 12 13
M  V30 13 2 13 14
M  V30 14 1 14 15
M  V30 15 2 15 16
M  V30 16 1 9 4
M  V30 17 1 16 11
M  V30 18 1 1 17
M  V30 19 1 1 18
M  V30 20 1 3 19
M  V30 21 1 3 20
M  V30 22 1 5 21
M  V30 23 1 6 22
M  V30 24 1 7 23
M  V30 25 1 8 24
M  V30 26 1 10 25
M  V30 27 1 10 26
M  V30 28 1 12 27
M  V30 29 1 13 28
M  V30 30 1 14 29
M  V30 31 1 15 30
M  V30 32 1 16 31
M  V30 END BOND
M  V30 END CTAB
M  END
