
     RDKit          3D

  0  0  0  0  0  0  0  0  0  0999 V3000
M  V30 BEGIN CTAB
M  V30 COUNTS 42 43 0 0 0
M  V30 BEGIN ATOM
M  V30 1 N 5.26733 1.92013 0.204023 0
M  V30 2 C 4.1918 0.951434 0.140845 0
M  V30 3 C 3.51026 0.957183 -1.22312 0
M  V30 4 C 2.59878 -0.252207 -1.25631 0
M  V30 5 C 1.6272 -0.153893 -0.104243 0
M  V30 6 C 1.75598 1.16144 0.632949 0
M  V30 7 C 3.15093 1.3048 1.18025 0
M  V30 8 N 0.274197 -0.282036 -0.59215 0
M  V30 9 C -0.57296 -1.31123 -0.106847 0
M  V30 10 O -0.0769723 -2.10106 0.760172 0
M  V30 11 C -1.96369 -1.5392 -0.523525 0
M  V30 12 C -2.88571 -0.670973 0.249245 0
M  V30 13 C -2.64449 0.649608 0.47182 0
M  V30 14 C -3.52788 1.4324 1.19934 0
M  V30 15 C -4.67532 0.904074 1.7201 0
M  V30 16 C -4.93604 -0.43788 1.50295 0
M  V30 17 C -4.06123 -1.21399 0.78225 0
M  V30 18 Br -5.91027 1.98414 2.73324 0
M  V30 19 N -2.28504 -2.9475 -0.174859 0
M  V30 20 C -2.15488 -1.38358 -2.00554 0
M  V30 21 H 6.1201 1.51129 -0.249818 0
M  V30 22 H 4.99921 2.81833 -0.231918 0
M  V30 23 H 4.55872 -0.0662111 0.330642 0
M  V30 24 H 2.87578 1.8518 -1.35578 0
M  V30 25 H 4.26409 0.901548 -2.03564 0
M  V30 26 H 3.25843 -1.15239 -1.17625 0
M  V30 27 H 2.04246 -0.26547 -2.2344 0
M  V30 28 H 1.80206 -0.953036 0.638637 0
M  V30 29 H 1.06786 1.08076 1.51956 0
M  V30 30 H 1.41064 2.0248 0.0531496 0
M  V30 31 H 3.25771 2.33996 1.56141 0
M  V30 32 H 3.23601 0.63681 2.08359 0
M  V30 33 H -0.0452544 0.414041 -1.32949 0
M  V30 34 H -1.74048 1.14773 0.0832413 0
M  V30 35 H -3.29636 2.48187 1.35313 0
M  V30 36 H -5.85324 -0.818044 1.93077 0
M  V30 37 H -4.28379 -2.25307 0.626104 0
M  V30 38 H -1.55085 -3.51799 -0.653096 0
M  V30 39 H -2.11903 -3.06303 0.854436 0
M  V30 40 H -1.43738 -0.698201 -2.4804 0
M  V30 41 H -2.05556 -2.36169 -2.54093 0
M  V30 42 H -3.19313 -1.03147 -2.23272 0
M  V30 END ATOM
M  V30 BEGIN BOND
M  V30 1 1 1 2
M  V30 2 1 2 3
M  V30 3 1 3 4
M  V30 4 1 4 5
M  V30 5 1 5 6
M  V30 6 1 6 7
M  V30 7 1 5 8
M  V30 8 1 8 9
M  V30 9 2 9 10
M  V30 10 1 9 11
M  V30 11 1 11 12
M  V30 12 2 12 13
M  V30 13 1 13 14
M  V30 14 2 14 15
M  V30 15 1 15 16
M  V30 16 2 16 17
M  V30 17 1 15 18
M  V30 18 1 11 19
M  V30 19 1 11 20
M  V30 20 1 7 2
M  V30 21 1 17 12
M  V30 22 1 1 21
M  V30 23 1 1 22
M  V30 24 1 2 23
M  V30 25 1 3 24
M  V30 26 1 3 25
M  V30 27 1 4 26
M  V30 28 1 4 27
M  V30 29 1 5 28
M  V30 30 1 6 29
M  V30 31 1 6 30
M  V30 32 1 7 31
M  V30 33 1 7 32
M  V30 34 1 8 33
M  V30 35 1 13 34
M  V30 36 1 14 35
M  V30 37 1 16 36
M  V30 38 1 17 37
M  V30 39 1 19 38
M  V30 40 1 19 39
M  V30 41 1 20 40
M  V30 42 1 20 41
M  V30 43 1 20 42
M  V30 END BOND
M  V30 END CTAB
M  END
