
     RDKit          3D

  0  0  0  0  0  0  0  0  0  0999 V3000
M  V30 BEGIN CTAB
M  V30 COUNTS 41 42 0 0 0
M  V30 BEGIN ATOM
M  V30 1 C -4.82456 -0.0884434 1.60818 0
M  V30 2 C -4.39318 0.764904 0.437192 0
M  V30 3 N -3.6366 0.0855388 -0.556964 0
M  V30 4 C -2.29106 -0.0821787 -0.645612 0
M  V30 5 O -1.94095 -0.763147 -1.73103 0
M  V30 6 C -1.15477 0.295311 0.143147 0
M  V30 7 C -1.19577 0.942411 1.35384 0
M  V30 8 C -0.061258 1.31146 2.08587 0
M  V30 9 C 1.16522 1.01617 1.57795 0
M  V30 10 C 1.25171 0.370074 0.371977 0
M  V30 11 C 0.153283 0.0199125 -0.32393 0
M  V30 12 N 2.53514 0.0597211 -0.161435 0
M  V30 13 N 3.62277 0.386305 0.371268 0
M  V30 14 C 4.89576 0.0573135 -0.193163 0
M  V30 15 C 5.51355 -1.17512 -0.204152 0
M  V30 16 N 5.00609 -2.37504 0.347103 0
M  V30 17 N 6.68288 -1.00018 -0.839573 0
M  V30 18 N 6.80888 0.263467 -1.21315 0
M  V30 19 C 5.72555 0.972846 -0.838051 0
M  V30 20 N 5.48893 2.35257 -1.05631 0
M  V30 21 C -4.47117 -0.536008 -1.66571 0
M  V30 22 C -4.84742 -1.93719 -1.28964 0
M  V30 23 H -5.80346 -0.567422 1.41357 0
M  V30 24 H -4.04036 -0.818152 1.88884 0
M  V30 25 H -4.95759 0.593305 2.47153 0
M  V30 26 H -3.93678 1.68616 0.783726 0
M  V30 27 H -5.39034 1.13218 -0.0182187 0
M  V30 28 H -2.13664 1.18374 1.79697 0
M  V30 29 H -0.15614 1.81433 3.02352 0
M  V30 30 H 2.07307 1.28864 2.12076 0
M  V30 31 H 0.253761 -0.490612 -1.27727 0
M  V30 32 H 4.15557 -2.34635 0.960693 0
M  V30 33 H 5.45063 -3.29408 0.163937 0
M  V30 34 H 7.6389 0.669972 -1.73339 0
M  V30 35 H 4.92117 2.6398 -1.88084 0
M  V30 36 H 5.87624 3.06271 -0.403725 0
M  V30 37 H -3.84819 -0.569769 -2.57994 0
M  V30 38 H -5.34116 0.109642 -1.86222 0
M  V30 39 H -4.50169 -2.67661 -2.06285 0
M  V30 40 H -4.33917 -2.27507 -0.34245 0
M  V30 41 H -5.95085 -2.08312 -1.22708 0
M  V30 END ATOM
M  V30 BEGIN BOND
M  V30 1 1 1 2
M  V30 2 1 2 3
M  V30 3 1 3 4
M  V30 4 2 4 5
M  V30 5 1 4 6
M  V30 6 2 6 7
M  V30 7 1 7 8
M  V30 8 2 8 9
M  V30 9 1 9 10
M  V30 10 2 10 11
M  V30 11 1 10 12
M  V30 12 2 12 13
M  V30 13 1 13 14
M  V30 14 1 14 15
M  V30 15 1 15 16
M  V30 16 2 15 17
M  V30 17 1 17 18
M  V30 18 1 18 19
M  V30 19 1 19 20
M  V30 20 1 3 21
M  V30 21 1 21 22
M  V30 22 1 11 6
M  V30 23 2 19 14
M  V30 24 1 1 23
M  V30 25 1 1 24
M  V30 26 1 1 25
M  V30 27 1 2 26
M  V30 28 1 2 27
M  V30 29 1 7 28
M  V30 30 1 8 29
M  V30 31 1 9 30
M  V30 32 1 11 31
M  V30 33 1 16 32
M  V30 34 1 16 33
M  V30 35 1 18 34
M  V30 36 1 20 35
M  V30 37 1 20 36
M  V30 38 1 21 37
M  V30 39 1 21 38
M  V30 40 1 22 39
M  V30 41 1 22 40
M  V30 42 1 22 41
M  V30 END BOND
M  V30 END CTAB
M  END
