
     RDKit          3D

  0  0  0  0  0  0  0  0  0  0999 V3000
M  V30 BEGIN CTAB
M  V30 COUNTS 24 24 0 0 0
M  V30 BEGIN ATOM
M  V30 1 C -2.95497 -0.681871 -0.319197 0
M  V30 2 C -1.60222 0.0214861 -0.466918 0
M  V30 3 C -0.555342 -0.959506 -0.0537778 0 CFG=1
M  V30 4 C 0.817849 -0.465182 -0.127426 0
M  V30 5 N 1.86327 -1.14897 0.374792 0
M  V30 6 N 2.96179 -0.482079 0.172989 0
M  V30 7 C 2.67616 0.659108 -0.466778 0
M  V30 8 N 1.34763 0.656202 -0.64589 0
M  V30 9 N 3.65113 1.62413 -0.842339 0
M  V30 10 N -0.794653 -1.46265 1.2839 0
M  V30 11 C -1.64898 1.26815 0.337406 0
M  V30 12 H -3.17512 -0.688437 0.770893 0
M  V30 13 H -2.78233 -1.72777 -0.646009 0
M  V30 14 H -3.74252 -0.174198 -0.904974 0
M  V30 15 H -1.53064 0.290847 -1.53978 0
M  V30 16 H -0.63464 -1.83777 -0.740554 0
M  V30 17 H 3.91418 -0.805544 0.472796 0
M  V30 18 H 4.43262 1.42315 -1.49497 0
M  V30 19 H 3.58804 2.58718 -0.448019 0
M  V30 20 H -0.512926 -0.729676 1.9863 0
M  V30 21 H -0.133231 -2.26036 1.42128 0
M  V30 22 H -1.01296 2.08914 -0.0883354 0
M  V30 23 H -1.47162 1.1292 1.41687 0
M  V30 24 H -2.70049 1.67542 0.261212 0
M  V30 END ATOM
M  V30 BEGIN BOND
M  V30 1 1 1 2
M  V30 2 1 2 3
M  V30 3 1 3 4
M  V30 4 2 4 5
M  V30 5 1 5 6
M  V30 6 1 6 7
M  V30 7 2 7 8
M  V30 8 1 7 9
M  V30 9 1 3 10
M  V30 10 1 2 11
M  V30 11 1 8 4
M  V30 12 1 1 12
M  V30 13 1 1 13
M  V30 14 1 1 14
M  V30 15 1 2 15
M  V30 16 1 3 16 CFG=3
M  V30 17 1 6 17
M  V30 18 1 9 18
M  V30 19 1 9 19
M  V30 20 1 10 20
M  V30 21 1 10 21
M  V30 22 1 11 22
M  V30 23 1 11 23
M  V30 24 1 11 24
M  V30 END BOND
M  V30 END CTAB
M  END
