
     RDKit          3D

  0  0  0  0  0  0  0  0  0  0999 V3000
M  V30 BEGIN CTAB
M  V30 COUNTS 36 38 0 0 0
M  V30 BEGIN ATOM
M  V30 1 C 7.28977 -0.559642 -0.4659 0
M  V30 2 O 6.18079 -0.866444 -1.25271 0
M  V30 3 C 4.86672 -0.606173 -0.85982 0
M  V30 4 C 4.59447 -0.0178309 0.356875 0
M  V30 5 C 3.27858 0.245036 0.755065 0
M  V30 6 C 2.21287 -0.0749816 -0.0545379 0
M  V30 7 C 2.48202 -0.662789 -1.27048 0
M  V30 8 C 3.79207 -0.922018 -1.66165 0
M  V30 9 C 0.821028 0.191473 0.342029 0
M  V30 10 N 0.487442 0.761624 1.51248 0
M  V30 11 N -0.823713 0.852592 1.54616 0
M  V30 12 C -1.33414 0.347655 0.41153 0
M  V30 13 N -0.299503 -0.0551793 -0.318227 0
M  V30 14 C -2.76989 0.2791 0.0912386 0
M  V30 15 C -3.21115 -0.255989 -1.09904 0
M  V30 16 C -4.5693 -0.315527 -1.39071 0
M  V30 17 N -5.05668 -0.856302 -2.59866 0
M  V30 18 C -5.50157 0.171263 -0.470108 0
M  V30 19 C -5.06586 0.707645 0.722241 0
M  V30 20 C -3.6963 0.745092 0.968379 0
M  V30 21 N -6.03616 1.19319 1.63558 0
M  V30 22 H 8.19857 -0.672705 -1.11933 0
M  V30 23 H 7.25928 0.503221 -0.139857 0
M  V30 24 H 7.35955 -1.19196 0.439246 0
M  V30 25 H 5.43677 0.230596 0.987201 0
M  V30 26 H 3.07766 0.707203 1.7124 0
M  V30 27 H 1.63549 -0.912754 -1.90458 0
M  V30 28 H 3.99759 -1.3864 -2.62314 0
M  V30 29 H 1.14756 1.07727 2.26325 0
M  V30 30 H -2.48538 -0.632572 -1.81067 0
M  V30 31 H -4.6273 -0.633584 -3.543 0
M  V30 32 H -5.8664 -1.50108 -2.5974 0
M  V30 33 H -6.55014 0.113142 -0.721115 0
M  V30 34 H -3.4083 1.17755 1.92201 0
M  V30 35 H -6.40651 2.15355 1.47985 0
M  V30 36 H -6.40992 0.666723 2.45171 0
M  V30 END ATOM
M  V30 BEGIN BOND
M  V30 1 1 1 2
M  V30 2 1 2 3
M  V30 3 2 3 4
M  V30 4 1 4 5
M  V30 5 2 5 6
M  V30 6 1 6 7
M  V30 7 2 7 8
M  V30 8 1 6 9
M  V30 9 1 9 10
M  V30 10 1 10 11
M  V30 11 2 11 12
M  V30 12 1 12 13
M  V30 13 1 12 14
M  V30 14 2 14 15
M  V30 15 1 15 16
M  V30 16 1 16 17
M  V30 17 2 16 18
M  V30 18 1 18 19
M  V30 19 2 19 20
M  V30 20 1 19 21
M  V30 21 1 8 3
M  V30 22 2 13 9
M  V30 23 1 20 14
M  V30 24 1 1 22
M  V30 25 1 1 23
M  V30 26 1 1 24
M  V30 27 1 4 25
M  V30 28 1 5 26
M  V30 29 1 7 27
M  V30 30 1 8 28
M  V30 31 1 10 29
M  V30 32 1 15 30
M  V30 33 1 17 31
M  V30 34 1 17 32
M  V30 35 1 18 33
M  V30 36 1 20 34
M  V30 37 1 21 35
M  V30 38 1 21 36
M  V30 END BOND
M  V30 END CTAB
M  END
