
     RDKit          3D

  0  0  0  0  0  0  0  0  0  0999 V3000
M  V30 BEGIN CTAB
M  V30 COUNTS 19 19 0 0 0
M  V30 BEGIN ATOM
M  V30 1 Cl 4.26387 -0.647773 -0.521521 0
M  V30 2 C 2.52461 -0.48826 -0.339651 0
M  V30 3 C 1.65506 -1.5237 -0.615722 0
M  V30 4 C 0.289988 -1.40496 -0.475105 0
M  V30 5 C -0.239014 -0.18252 -0.0334603 0
M  V30 6 C 0.6293 0.854158 0.243109 0
M  V30 7 C 1.99693 0.712186 0.0946527 0
M  V30 8 N 0.0531209 2.08531 0.691115 0
M  V30 9 C -1.6609 0.00642305 0.134547 0
M  V30 10 N -2.11546 1.12566 0.536767 0
M  V30 11 N -2.55094 -1.04874 -0.146503 0
M  V30 12 H 2.10532 -2.44841 -0.953529 0
M  V30 13 H -0.383619 -2.22356 -0.694392 0
M  V30 14 H 2.61991 1.57647 0.332764 0
M  V30 15 H -0.210253 2.78159 -0.0530894 0
M  V30 16 H -0.115281 2.32551 1.6729 0
M  V30 17 H -3.09028 1.38814 0.695701 0
M  V30 18 H -2.99007 -1.63428 0.574435 0
M  V30 19 H -2.78229 -1.25324 -1.14302 0
M  V30 END ATOM
M  V30 BEGIN BOND
M  V30 1 1 1 2
M  V30 2 2 2 3
M  V30 3 1 3 4
M  V30 4 2 4 5
M  V30 5 1 5 6
M  V30 6 2 6 7
M  V30 7 1 6 8
M  V30 8 1 5 9
M  V30 9 2 9 10 CFG=2
M  V30 10 1 9 11
M  V30 11 1 7 2
M  V30 12 1 3 12
M  V30 13 1 4 13
M  V30 14 1 7 14
M  V30 15 1 8 15
M  V30 16 1 8 16
M  V30 17 1 10 17
M  V30 18 1 11 18
M  V30 19 1 11 19
M  V30 END BOND
M  V30 END CTAB
M  END
