
     RDKit          3D

  0  0  0  0  0  0  0  0  0  0999 V3000
M  V30 BEGIN CTAB
M  V30 COUNTS 31 34 0 0 0
M  V30 BEGIN ATOM
M  V30 1 N 6.53198 -0.657796 0.940284 0
M  V30 2 C 5.21937 -0.336585 0.506762 0
M  V30 3 N 4.06738 -0.798897 1.04478 0
M  V30 4 C 3.00538 -0.294975 0.392732 0
M  V30 5 C 1.63341 -0.39879 0.482058 0
M  V30 6 C 0.761583 0.261936 -0.357917 0
M  V30 7 C 1.34355 1.07132 -1.3402 0
M  V30 8 C 2.70877 1.19304 -1.45189 0
M  V30 9 C 3.56032 0.521086 -0.598661 0
M  V30 10 O 4.85939 0.460015 -0.486533 0
M  V30 11 C -0.676344 0.12359 -0.228563 0
M  V30 12 C -1.5329 0.206441 -1.3167 0
M  V30 13 C -2.89198 0.0649342 -1.12108 0
M  V30 14 C -3.44639 -0.157856 0.120595 0
M  V30 15 C -2.59324 -0.240423 1.20435 0
M  V30 16 C -1.23055 -0.0997057 1.01649 0
M  V30 17 C -4.81843 -0.254143 -0.00748352 0
M  V30 18 N -5.77431 -0.479945 1.02515 0
M  V30 19 N -5.05629 -0.0856709 -1.33344 0
M  V30 20 N -3.92381 0.102053 -1.9888 0
M  V30 21 H 6.80965 -0.61633 1.94087 0
M  V30 22 H 7.23285 -0.941344 0.242993 0
M  V30 23 H 1.23259 -1.03967 1.26147 0
M  V30 24 H 0.680172 1.59498 -2.00529 0
M  V30 25 H 3.10902 1.83657 -2.23433 0
M  V30 26 H -1.09289 0.381513 -2.28966 0
M  V30 27 H -3.04283 -0.415653 2.17288 0
M  V30 28 H -0.58089 -0.168213 1.88131 0
M  V30 29 H -5.86055 -1.41633 1.42994 0
M  V30 30 H -6.3533 0.331965 1.32769 0
M  V30 31 H -3.88068 0.252874 -3.02513 0
M  V30 END ATOM
M  V30 BEGIN BOND
M  V30 1 1 1 2
M  V30 2 2 2 3
M  V30 3 1 3 4
M  V30 4 2 4 5
M  V30 5 1 5 6
M  V30 6 2 6 7
M  V30 7 1 7 8
M  V30 8 2 8 9
M  V30 9 1 9 10
M  V30 10 1 6 11
M  V30 11 2 11 12
M  V30 12 1 12 13
M  V30 13 2 13 14
M  V30 14 1 14 15
M  V30 15 2 15 16
M  V30 16 1 14 17
M  V30 17 1 17 18
M  V30 18 2 17 19
M  V30 19 1 19 20
M  V30 20 1 10 2
M  V30 21 1 16 11
M  V30 22 1 9 4
M  V30 23 1 20 13
M  V30 24 1 1 21
M  V30 25 1 1 22
M  V30 26 1 5 23
M  V30 27 1 7 24
M  V30 28 1 8 25
M  V30 29 1 12 26
M  V30 30 1 15 27
M  V30 31 1 16 28
M  V30 32 1 18 29
M  V30 33 1 18 30
M  V30 34 1 20 31
M  V30 END BOND
M  V30 END CTAB
M  END
