
     RDKit          3D

  0  0  0  0  0  0  0  0  0  0999 V3000
M  V30 BEGIN CTAB
M  V30 COUNTS 32 34 0 0 0
M  V30 BEGIN ATOM
M  V30 1 C -2.93205 4.44541 1.21522 0
M  V30 2 O -3.16484 3.10851 0.804184 0
M  V30 3 C -2.15961 2.2262 0.487136 0
M  V30 4 O -0.974231 2.65834 0.576145 0
M  V30 5 C -2.4382 0.85415 0.0668655 0
M  V30 6 N -3.61612 0.247203 -0.0773845 0
M  V30 7 N -3.42361 -0.973013 -0.468532 0
M  V30 8 N -2.11006 -1.24579 -0.606154 0
M  V30 9 C -1.47461 -0.117435 -0.276584 0
M  V30 10 C -0.0381411 0.169108 -0.243254 0
M  V30 11 S 1.00765 -1.1895 -0.711601 0
M  V30 12 C 2.72751 -0.663667 -0.614222 0
M  V30 13 N 3.81383 -1.3804 -0.882403 0
M  V30 14 N 4.95356 -0.854911 -0.762218 0
M  V30 15 C 5.06595 0.40904 -0.369345 0
M  V30 16 S 3.41975 0.83669 -0.169925 0
M  V30 17 N 6.27176 1.18259 -0.173783 0
M  V30 18 C -1.5645 -2.48983 -1.01872 0
M  V30 19 N -1.22518 -2.95514 -2.2297 0
M  V30 20 O -0.773002 -4.17287 -2.15588 0
M  V30 21 N -0.793674 -4.55863 -0.912076 0
M  V30 22 C -1.28345 -3.53863 -0.146542 0
M  V30 23 N -1.45701 -3.57715 1.25656 0
M  V30 24 H -3.05109 4.47761 2.31118 0
M  V30 25 H -3.6582 5.15652 0.746543 0
M  V30 26 H -1.89468 4.78261 0.976879 0
M  V30 27 H 0.246584 1.05327 -0.856305 0
M  V30 28 H 0.230126 0.450981 0.817609 0
M  V30 29 H 6.76331 1.60593 -0.969219 0
M  V30 30 H 6.57572 1.26075 0.822268 0
M  V30 31 H -1.54203 -2.71553 1.82453 0
M  V30 32 H -1.50148 -4.49243 1.73874 0
M  V30 END ATOM
M  V30 BEGIN BOND
M  V30 1 1 1 2
M  V30 2 1 2 3
M  V30 3 2 3 4
M  V30 4 1 3 5
M  V30 5 1 5 6
M  V30 6 2 6 7
M  V30 7 1 7 8
M  V30 8 1 8 9
M  V30 9 1 9 10
M  V30 10 1 10 11
M  V30 11 1 11 12
M  V30 12 2 12 13
M  V30 13 1 13 14
M  V30 14 2 14 15
M  V30 15 1 15 16
M  V30 16 1 15 17
M  V30 17 1 8 18
M  V30 18 2 18 19
M  V30 19 1 19 20
M  V30 20 1 20 21
M  V30 21 2 21 22
M  V30 22 1 22 23
M  V30 23 2 9 5
M  V30 24 1 16 12
M  V30 25 1 22 18
M  V30 26 1 1 24
M  V30 27 1 1 25
M  V30 28 1 1 26
M  V30 29 1 10 27
M  V30 30 1 10 28
M  V30 31 1 17 29
M  V30 32 1 17 30
M  V30 33 1 23 31
M  V30 34 1 23 32
M  V30 END BOND
M  V30 END CTAB
M  END
