
     RDKit          3D

  0  0  0  0  0  0  0  0  0  0999 V3000
M  V30 BEGIN CTAB
M  V30 COUNTS 44 47 0 0 0
M  V30 BEGIN ATOM
M  V30 1 N -3.97214 2.96622 1.19529 0
M  V30 2 C -4.35011 1.67244 1.52902 0 CFG=2
M  V30 3 C -3.22169 0.77733 1.99824 0
M  V30 4 C -3.64221 -0.233475 0.984116 0 CFG=1
M  V30 5 C -4.49225 0.808849 0.289784 0
M  V30 6 C -2.62112 -0.808989 0.122507 0
M  V30 7 C -1.70183 -0.0601831 -0.554284 0
M  V30 8 C -0.742998 -0.659159 -1.36793 0
M  V30 9 N 0.186137 0.131385 -2.06218 0
M  V30 10 C 1.22224 -0.400416 -2.90943 0
M  V30 11 C 2.22828 -1.20188 -2.15865 0
M  V30 12 C 2.9194 -0.423447 -1.10651 0
M  V30 13 C 3.89106 -0.925549 -0.27164 0
M  V30 14 N 4.27867 0.0865462 0.550701 0
M  V30 15 C 3.5897 1.18432 0.258072 0
M  V30 16 N 2.75627 0.862112 -0.761877 0
M  V30 17 N 3.81252 2.30887 0.94985 0
M  V30 18 C 4.71777 2.39411 1.95086 0
M  V30 19 C 5.43057 1.2505 2.25043 0
M  V30 20 C 5.19383 0.0938613 1.53084 0
M  V30 21 N -0.768023 -1.98612 -1.45151 0
M  V30 22 C -1.66268 -2.7612 -0.796478 0
M  V30 23 N -2.5663 -2.14302 -0.0254931 0
M  V30 24 N -1.58444 -4.1547 -0.967856 0
M  V30 25 H -3.27601 3.16618 0.566517 0
M  V30 26 H -4.5931 3.67087 1.45649 0
M  V30 27 H -5.19657 1.59923 2.2258 0
M  V30 28 H -2.26308 1.27637 1.85918 0
M  V30 29 H -3.31612 0.420631 3.04675 0
M  V30 30 H -4.30201 -0.990509 1.45274 0
M  V30 31 H -5.52532 0.510363 0.0992778 0
M  V30 32 H -3.94027 1.21819 -0.583808 0
M  V30 33 H -1.69027 0.999751 -0.480767 0
M  V30 34 H 0.121938 1.19091 -1.95667 0
M  V30 35 H 1.67824 0.398907 -3.53499 0
M  V30 36 H 0.753059 -1.09821 -3.65904 0
M  V30 37 H 1.74832 -2.08528 -1.71231 0
M  V30 38 H 2.98872 -1.58239 -2.89879 0
M  V30 39 H 4.26084 -1.92772 -0.281239 0
M  V30 40 H 4.8605 3.32216 2.4778 0
M  V30 41 H 6.1565 1.29656 3.04415 0
M  V30 42 H 5.75213 -0.790258 1.77017 0
M  V30 43 H -0.671592 -4.65236 -0.983649 0
M  V30 44 H -2.44655 -4.72182 -1.08348 0
M  V30 END ATOM
M  V30 BEGIN BOND
M  V30 1 1 1 2
M  V30 2 1 2 3
M  V30 3 1 3 4
M  V30 4 1 4 5
M  V30 5 1 4 6
M  V30 6 2 6 7
M  V30 7 1 7 8
M  V30 8 1 8 9
M  V30 9 1 9 10
M  V30 10 1 10 11
M  V30 11 1 11 12
M  V30 12 2 12 13
M  V30 13 1 13 14
M  V30 14 1 14 15
M  V30 15 2 15 16
M  V30 16 1 15 17
M  V30 17 2 17 18
M  V30 18 1 18 19
M  V30 19 2 19 20
M  V30 20 2 8 21
M  V30 21 1 21 22
M  V30 22 2 22 23
M  V30 23 1 22 24
M  V30 24 1 5 2
M  V30 25 1 23 6
M  V30 26 1 16 12
M  V30 27 1 20 14
M  V30 28 1 1 25
M  V30 29 1 1 26
M  V30 30 1 2 27 CFG=1
M  V30 31 1 3 28
M  V30 32 1 3 29
M  V30 33 1 4 30 CFG=1
M  V30 34 1 5 31
M  V30 35 1 5 32
M  V30 36 1 7 33
M  V30 37 1 9 34
M  V30 38 1 10 35
M  V30 39 1 10 36
M  V30 40 1 11 37
M  V30 41 1 11 38
M  V30 42 1 13 39
M  V30 43 1 18 40
M  V30 44 1 19 41
M  V30 45 1 20 42
M  V30 46 1 24 43
M  V30 47 1 24 44
M  V30 END BOND
M  V30 END CTAB
M  END
