
     RDKit          3D

  0  0  0  0  0  0  0  0  0  0999 V3000
M  V30 BEGIN CTAB
M  V30 COUNTS 34 35 0 0 0
M  V30 BEGIN ATOM
M  V30 1 N 5.04502 1.43635 0.457714 0
M  V30 2 C 3.96298 0.795938 -0.208947 0
M  V30 3 N 3.89189 0.308192 -1.4604 0
M  V30 4 N 2.69064 -0.211426 -1.68207 0
M  V30 5 C 1.91127 -0.0929801 -0.591412 0
M  V30 6 C 2.72337 0.548472 0.344723 0
M  V30 7 C 0.498038 -0.535843 -0.395829 0 CFG=1
M  V30 8 C 0.354698 -1.51993 0.728446 0
M  V30 9 C -0.713104 -2.52032 0.345805 0
M  V30 10 C -2.09335 -1.89821 0.492182 0
M  V30 11 C -2.25279 -0.702262 -0.435874 0
M  V30 12 N -1.68789 0.485673 0.112511 0
M  V30 13 C -0.317873 0.710953 -0.180112 0
M  V30 14 S -2.53189 1.92021 -0.425079 0
M  V30 15 O -2.38609 1.94577 -1.93063 0
M  V30 16 O -1.75595 3.08889 0.102962 0
M  V30 17 N -4.15892 1.91773 0.0620221 0
M  V30 18 H 6.02185 1.10653 0.295997 0
M  V30 19 H 4.93167 2.23676 1.11738 0
M  V30 20 H 2.38447 -0.656934 -2.58688 0
M  V30 21 H 2.36944 0.787826 1.34283 0
M  V30 22 H 0.167785 -1.00564 -1.34361 0
M  V30 23 H 0.0447882 -0.935495 1.64036 0
M  V30 24 H 1.30776 -2.01191 0.949968 0
M  V30 25 H -0.545719 -2.78896 -0.708935 0
M  V30 26 H -0.703903 -3.41121 1.00903 0
M  V30 27 H -2.82926 -2.68024 0.157604 0
M  V30 28 H -2.25747 -1.62151 1.54594 0
M  V30 29 H -1.87112 -0.979353 -1.43033 0
M  V30 30 H -3.36398 -0.54033 -0.517122 0
M  V30 31 H 0.15011 1.26787 0.658182 0
M  V30 32 H -0.19945 1.33894 -1.09188 0
M  V30 33 H -4.35629 1.29526 0.868333 0
M  V30 34 H -4.43073 2.92117 0.290314 0
M  V30 END ATOM
M  V30 BEGIN BOND
M  V30 1 1 1 2
M  V30 2 2 2 3
M  V30 3 1 3 4
M  V30 4 1 4 5
M  V30 5 2 5 6
M  V30 6 1 5 7
M  V30 7 1 7 8
M  V30 8 1 8 9
M  V30 9 1 9 10
M  V30 10 1 10 11
M  V30 11 1 11 12
M  V30 12 1 12 13
M  V30 13 1 12 14
M  V30 14 2 14 15
M  V30 15 2 14 16
M  V30 16 1 14 17
M  V30 17 1 6 2
M  V30 18 1 13 7
M  V30 19 1 1 18
M  V30 20 1 1 19
M  V30 21 1 4 20
M  V30 22 1 6 21
M  V30 23 1 7 22 CFG=3
M  V30 24 1 8 23
M  V30 25 1 8 24
M  V30 26 1 9 25
M  V30 27 1 9 26
M  V30 28 1 10 27
M  V30 29 1 10 28
M  V30 30 1 11 29
M  V30 31 1 11 30
M  V30 32 1 13 31
M  V30 33 1 13 32
M  V30 34 1 17 33
M  V30 35 1 17 34
M  V30 END BOND
M  V30 END CTAB
M  END
