
     RDKit          3D

  0  0  0  0  0  0  0  0  0  0999 V3000
M  V30 BEGIN CTAB
M  V30 COUNTS 46 45 0 0 0
M  V30 BEGIN ATOM
M  V30 1 N 6.68839 -1.9361 -1.64942 0
M  V30 2 C 5.34923 -1.67219 -1.21709 0
M  V30 3 C 5.20401 -0.297973 -0.599901 0
M  V30 4 C 3.76409 -0.0583745 -0.153755 0
M  V30 5 O 3.34443 -0.949783 0.7625 0
M  V30 6 C 2.09318 -0.81254 1.2752 0
M  V30 7 C 0.933808 -0.843387 0.356983 0
M  V30 8 O 0.808231 0.0963046 -0.605151 0
M  V30 9 C 0.60686 1.4008 -0.204508 0
M  V30 10 C -0.662693 1.56484 0.602153 0
M  V30 11 O -1.81549 1.21439 -0.0362514 0
M  V30 12 C -2.07612 1.93532 -1.18338 0
M  V30 13 C -3.38701 1.47664 -1.79053 0
M  V30 14 C -4.55629 1.65432 -0.879362 0
M  V30 15 N -4.47763 0.938893 0.362668 0
M  V30 16 C -4.37691 -0.466972 0.368674 0
M  V30 17 O -4.35294 -1.13939 -0.708928 0
M  V30 18 C -4.29479 -1.21368 1.64959 0
M  V30 19 N -4.19778 -2.62929 1.45897 0
M  V30 20 H 6.85349 -1.61751 -2.61657 0
M  V30 21 H 7.34674 -1.49091 -0.980023 0
M  V30 22 H 4.67698 -1.78792 -2.07233 0
M  V30 23 H 5.01553 -2.42237 -0.449663 0
M  V30 24 H 5.89576 -0.16718 0.25324 0
M  V30 25 H 5.47605 0.451302 -1.36739 0
M  V30 26 H 3.6953 0.973467 0.21151 0
M  V30 27 H 3.14927 -0.152071 -1.08343 0
M  V30 28 H 2.05914 0.0525945 1.99352 0
M  V30 29 H 1.95255 -1.69836 1.98515 0
M  V30 30 H 1.0221 -1.83622 -0.19627 0
M  V30 31 H -0.0197574 -1.00713 0.949803 0
M  V30 32 H 1.44506 1.86848 0.347388 0
M  V30 33 H 0.491865 2.02001 -1.11593 0
M  V30 34 H -0.585487 1.0989 1.60359 0
M  V30 35 H -0.733249 2.67319 0.814903 0
M  V30 36 H -2.03505 3.02049 -1.05831 0
M  V30 37 H -1.28762 1.6634 -1.94805 0
M  V30 38 H -3.29876 0.48326 -2.22721 0
M  V30 39 H -3.56536 2.17651 -2.66002 0
M  V30 40 H -5.46045 1.24596 -1.41607 0
M  V30 41 H -4.75326 2.74056 -0.735046 0
M  V30 42 H -4.49498 1.45735 1.25459 0
M  V30 43 H -3.41164 -0.880992 2.21703 0
M  V30 44 H -5.21228 -1.01113 2.23982 0
M  V30 45 H -5.12662 -3.07273 1.30535 0
M  V30 46 H -3.68989 -3.04279 2.27563 0
M  V30 END ATOM
M  V30 BEGIN BOND
M  V30 1 1 1 2
M  V30 2 1 2 3
M  V30 3 1 3 4
M  V30 4 1 4 5
M  V30 5 1 5 6
M  V30 6 1 6 7
M  V30 7 1 7 8
M  V30 8 1 8 9
M  V30 9 1 9 10
M  V30 10 1 10 11
M  V30 11 1 11 12
M  V30 12 1 12 13
M  V30 13 1 13 14
M  V30 14 1 14 15
M  V30 15 1 15 16
M  V30 16 2 16 17
M  V30 17 1 16 18
M  V30 18 1 18 19
M  V30 19 1 1 20
M  V30 20 1 1 21
M  V30 21 1 2 22
M  V30 22 1 2 23
M  V30 23 1 3 24
M  V30 24 1 3 25
M  V30 25 1 4 26
M  V30 26 1 4 27
M  V30 27 1 6 28
M  V30 28 1 6 29
M  V30 29 1 7 30
M  V30 30 1 7 31
M  V30 31 1 9 32
M  V30 32 1 9 33
M  V30 33 1 10 34
M  V30 34 1 10 35
M  V30 35 1 12 36
M  V30 36 1 12 37
M  V30 37 1 13 38
M  V30 38 1 13 39
M  V30 39 1 14 40
M  V30 40 1 14 41
M  V30 41 1 15 42
M  V30 42 1 18 43
M  V30 43 1 18 44
M  V30 44 1 19 45
M  V30 45 1 19 46
M  V30 END BOND
M  V30 END CTAB
M  END
