
     RDKit          3D

  0  0  0  0  0  0  0  0  0  0999 V3000
M  V30 BEGIN CTAB
M  V30 COUNTS 23 22 0 0 0
M  V30 BEGIN ATOM
M  V30 1 C -3.23606 0.674195 -0.331446 0
M  V30 2 C -1.74625 0.591767 -0.0989228 0
M  V30 3 C -1.53355 -0.244157 1.11456 0
M  V30 4 C -2.23794 -1.34255 1.24836 0
M  V30 5 S -0.880008 -0.188879 -1.46605 0
M  V30 6 C 0.868291 -0.227265 -1.07297 0
M  V30 7 N 1.28508 0.262105 0.0429347 0
M  V30 8 C 2.66548 0.231996 0.353681 0
M  V30 9 N 3.34471 -0.847699 0.501559 0
M  V30 10 N 3.35084 1.47244 0.513943 0
M  V30 11 N 1.81408 -0.793231 -1.97821 0
M  V30 12 H -3.63388 -0.135281 -0.948357 0
M  V30 13 H -3.72843 0.634654 0.661624 0
M  V30 14 H -3.50063 1.66471 -0.763393 0
M  V30 15 H -1.37817 1.61635 0.111097 0
M  V30 16 H -0.796351 0.0779104 1.86314 0
M  V30 17 H -2.94595 -1.62627 0.501958 0
M  V30 18 H -2.10038 -1.95709 2.1125 0
M  V30 19 H 2.83675 -1.76427 0.382845 0
M  V30 20 H 3.60663 2.03069 -0.342413 0
M  V30 21 H 3.6062 1.84365 1.44826 0
M  V30 22 H 2.19405 -0.197547 -2.74072 0
M  V30 23 H 2.14549 -1.77622 -1.91521 0
M  V30 END ATOM
M  V30 BEGIN BOND
M  V30 1 1 1 2
M  V30 2 1 2 3
M  V30 3 2 3 4 CFG=2
M  V30 4 1 2 5
M  V30 5 1 5 6
M  V30 6 2 6 7 CFG=2
M  V30 7 1 7 8
M  V30 8 2 8 9 CFG=2
M  V30 9 1 8 10
M  V30 10 1 6 11
M  V30 11 1 1 12
M  V30 12 1 1 13
M  V30 13 1 1 14
M  V30 14 1 2 15
M  V30 15 1 3 16
M  V30 16 1 4 17
M  V30 17 1 4 18
M  V30 18 1 9 19
M  V30 19 1 10 20
M  V30 20 1 10 21
M  V30 21 1 11 22
M  V30 22 1 11 23
M  V30 END BOND
M  V30 END CTAB
M  END
