
     RDKit          3D

  0  0  0  0  0  0  0  0  0  0999 V3000
M  V30 BEGIN CTAB
M  V30 COUNTS 51 53 0 0 0
M  V30 BEGIN ATOM
M  V30 1 N -3.7648 1.00176 1.58443 0
M  V30 2 C -2.59351 0.377911 1.03979 0 CFG=2
M  V30 3 C -1.40876 1.20736 1.53662 0
M  V30 4 N -0.192672 0.609789 1.0089 0
M  V30 5 C 0.987523 1.30765 1.42023 0 CFG=2
M  V30 6 C 0.951426 2.74721 0.878213 0
M  V30 7 N 0.989733 2.56894 -0.545554 0
M  V30 8 C 1.59589 1.25572 -0.805196 0
M  V30 9 C 2.14314 0.822452 0.548011 0 CFG=2
M  V30 10 C 2.29916 -0.64322 0.697088 0
M  V30 11 C 3.45952 -1.03257 -0.188752 0
M  V30 12 C 3.26182 -1.38845 -1.49354 0
M  V30 13 C 4.35762 -1.73081 -2.25219 0
M  V30 14 C 5.62148 -1.71125 -1.69628 0
M  V30 15 C 5.79295 -1.34963 -0.381993 0
M  V30 16 N 7.07952 -1.3203 0.214994 0
M  V30 17 N 4.68602 -1.02422 0.31404 0
M  V30 18 C -2.67004 0.387547 -0.473848 0
M  V30 19 C -3.88686 -0.366342 -0.871403 0
M  V30 20 C -3.88096 -1.72001 -1.10819 0
M  V30 21 C -5.01424 -2.41862 -1.47765 0
M  V30 22 C -6.22576 -1.73807 -1.62147 0
M  V30 23 C -6.24081 -0.379419 -1.38576 0
M  V30 24 C -5.09741 0.299756 -1.01758 0
M  V30 25 H -3.79491 1.98012 1.33797 0
M  V30 26 H -3.94523 0.803963 2.5244 0
M  V30 27 H -2.55525 -0.660122 1.38258 0
M  V30 28 H -1.56834 2.24096 1.23171 0
M  V30 29 H -1.39972 1.1129 2.63743 0
M  V30 30 H -0.160971 -0.378118 1.35176 0
M  V30 31 H 1.21527 1.26697 2.48005 0
M  V30 32 H 0.134311 3.3381 1.27224 0
M  V30 33 H 1.91378 3.20529 1.20373 0
M  V30 34 H 1.59311 3.28845 -0.98047 0
M  V30 35 H 0.756452 0.596914 -1.11777 0
M  V30 36 H 2.35972 1.32223 -1.58051 0
M  V30 37 H 3.05268 1.40411 0.724784 0
M  V30 38 H 2.6306 -0.850873 1.73247 0
M  V30 39 H 1.4124 -1.23389 0.452326 0
M  V30 40 H 2.24835 -1.38658 -1.87836 0
M  V30 41 H 4.20712 -2.01452 -3.28998 0
M  V30 42 H 6.4681 -1.99137 -2.33738 0
M  V30 43 H 7.90503 -1.69471 -0.258376 0
M  V30 44 H 7.18324 -0.901082 1.17068 0
M  V30 45 H -2.77124 1.40907 -0.882893 0
M  V30 46 H -1.7895 -0.0962829 -0.928254 0
M  V30 47 H -2.95029 -2.25831 -1.00072 0
M  V30 48 H -4.97508 -3.49663 -1.6587 0
M  V30 49 H -7.09296 -2.30281 -1.90936 0
M  V30 50 H -7.17984 0.170487 -1.49338 0
M  V30 51 H -5.14682 1.36254 -0.841441 0
M  V30 END ATOM
M  V30 BEGIN BOND
M  V30 1 1 1 2
M  V30 2 1 2 3
M  V30 3 1 3 4
M  V30 4 1 4 5
M  V30 5 1 5 6
M  V30 6 1 6 7
M  V30 7 1 7 8
M  V30 8 1 8 9
M  V30 9 1 9 10
M  V30 10 1 10 11
M  V30 11 2 11 12
M  V30 12 1 12 13
M  V30 13 2 13 14
M  V30 14 1 14 15
M  V30 15 1 15 16
M  V30 16 2 15 17
M  V30 17 1 2 18
M  V30 18 1 18 19
M  V30 19 2 19 20
M  V30 20 1 20 21
M  V30 21 2 21 22
M  V30 22 1 22 23
M  V30 23 2 23 24
M  V30 24 1 9 5
M  V30 25 1 17 11
M  V30 26 1 24 19
M  V30 27 1 1 25
M  V30 28 1 1 26
M  V30 29 1 2 27 CFG=1
M  V30 30 1 3 28
M  V30 31 1 3 29
M  V30 32 1 4 30
M  V30 33 1 5 31 CFG=1
M  V30 34 1 6 32
M  V30 35 1 6 33
M  V30 36 1 7 34
M  V30 37 1 8 35
M  V30 38 1 8 36
M  V30 39 1 9 37 CFG=1
M  V30 40 1 10 38
M  V30 41 1 10 39
M  V30 42 1 12 40
M  V30 43 1 13 41
M  V30 44 1 14 42
M  V30 45 1 16 43
M  V30 46 1 16 44
M  V30 47 1 18 45
M  V30 48 1 18 46
M  V30 49 1 20 47
M  V30 50 1 21 48
M  V30 51 1 22 49
M  V30 52 1 23 50
M  V30 53 1 24 51
M  V30 END BOND
M  V30 END CTAB
M  END
