
     RDKit          3D

  0  0  0  0  0  0  0  0  0  0999 V3000
M  V30 BEGIN CTAB
M  V30 COUNTS 70 71 0 0 0
M  V30 BEGIN ATOM
M  V30 1 N -10.8773 1.94453 1.83862 0
M  V30 2 C -11.8156 1.74013 0.77433 0
M  V30 3 N -12.5607 2.73448 0.442311 0
M  V30 4 N -11.9187 0.485508 0.112435 0
M  V30 5 N -11.2997 -0.68293 0.553687 0
M  V30 6 C -10.0642 -0.859337 0.184454 0
M  V30 7 C -9.34466 0.0991646 -0.646138 0
M  V30 8 C -8.09412 -0.0952016 -1.01299 0
M  V30 9 C -7.38852 -1.29339 -0.589621 0
M  V30 10 C -8.09187 -2.25906 0.239081 0
M  V30 11 C -9.34652 -2.06223 0.605668 0
M  V30 12 N -6.1606 -1.52905 -0.925829 0
M  V30 13 N -5.38384 -0.693371 -1.70991 0
M  V30 14 C -4.07008 -0.355024 -1.29713 0
M  V30 15 S -3.18784 0.640801 -2.26405 0
M  V30 16 N -3.48818 -0.822332 -0.109682 0
M  V30 17 C -2.19096 -0.565658 0.413297 0
M  V30 18 C -1.05465 -1.18171 -0.371405 0
M  V30 19 C 0.278501 -0.920868 0.277972 0
M  V30 20 C 0.680978 0.491037 0.433096 0
M  V30 21 C 0.792809 1.2022 -0.885709 0
M  V30 22 C 1.82175 0.504922 -1.73875 0
M  V30 23 N 3.09644 0.472523 -1.08128 0
M  V30 24 C 3.87112 1.62698 -0.918261 0
M  V30 25 S 3.35916 3.05083 -1.51886 0
M  V30 26 N 5.12244 1.51208 -0.236578 0
M  V30 27 N 5.54872 0.290479 0.248687 0
M  V30 28 C 6.7718 -0.0942608 0.357966 0
M  V30 29 C 7.8734 0.772439 -0.0423877 0
M  V30 30 C 9.1169 0.348216 0.0835947 0
M  V30 31 C 9.38736 -0.967144 0.614686 0
M  V30 32 C 8.29494 -1.86897 1.02893 0
M  V30 33 C 7.05761 -1.42219 0.893536 0
M  V30 34 N 10.5817 -1.39475 0.745561 0
M  V30 35 N 11.6455 -0.592408 0.375368 0
M  V30 36 C 12.5845 -0.178329 1.36716 0
M  V30 37 N 13.1394 1.12772 1.28914 0
M  V30 38 N 12.9065 -0.986615 2.30324 0
M  V30 39 H -10.9031 1.39797 2.7178 0
M  V30 40 H -10.118 2.66271 1.77254 0
M  V30 41 H -12.4919 3.63673 0.914318 0
M  V30 42 H -12.4899 0.432986 -0.754418 0
M  V30 43 H -9.88706 1.00377 -0.961 0
M  V30 44 H -7.57341 0.613754 -1.62262 0
M  V30 45 H -7.56981 -3.17354 0.569466 0
M  V30 46 H -9.90467 -2.76966 1.22841 0
M  V30 47 H -5.75872 -0.318991 -2.59029 0
M  V30 48 H -4.13018 -1.46312 0.472108 0
M  V30 49 H -2.09419 -0.912758 1.45001 0
M  V30 50 H -2.02222 0.540505 0.395177 0
M  V30 51 H -1.00538 -0.792675 -1.40963 0
M  V30 52 H -1.16337 -2.30707 -0.378185 0
M  V30 53 H 0.274937 -1.45681 1.27938 0
M  V30 54 H 1.04628 -1.48842 -0.326896 0
M  V30 55 H -0.0416301 1.03861 1.1032 0
M  V30 56 H 1.66976 0.513127 0.968652 0
M  V30 57 H -0.213085 1.06197 -1.39057 0
M  V30 58 H 0.979344 2.28247 -0.739831 0
M  V30 59 H 1.90107 1.10283 -2.70714 0
M  V30 60 H 1.49235 -0.516057 -1.96675 0
M  V30 61 H 3.44411 -0.459336 -0.7151 0
M  V30 62 H 5.70722 2.35646 -0.111081 0
M  V30 63 H 7.66612 1.76258 -0.443613 0
M  V30 64 H 9.91318 0.995658 -0.214391 0
M  V30 65 H 8.46792 -2.85317 1.42817 0
M  V30 66 H 6.24374 -2.07028 1.19145 0
M  V30 67 H 11.7926 -0.275764 -0.596579 0
M  V30 68 H 13.533 1.53183 2.15092 0
M  V30 69 H 13.1382 1.63689 0.392898 0
M  V30 70 H 12.5034 -1.9324 2.35898 0
M  V30 END ATOM
M  V30 BEGIN BOND
M  V30 1 1 1 2
M  V30 2 2 2 3 CFG=2
M  V30 3 1 2 4
M  V30 4 1 4 5
M  V30 5 2 5 6 CFG=2
M  V30 6 1 6 7
M  V30 7 2 7 8
M  V30 8 1 8 9
M  V30 9 1 9 10
M  V30 10 2 10 11
M  V30 11 2 9 12
M  V30 12 1 12 13
M  V30 13 1 13 14
M  V30 14 2 14 15
M  V30 15 1 14 16
M  V30 16 1 16 17
M  V30 17 1 17 18
M  V30 18 1 18 19
M  V30 19 1 19 20
M  V30 20 1 20 21
M  V30 21 1 21 22
M  V30 22 1 22 23
M  V30 23 1 23 24
M  V30 24 2 24 25
M  V30 25 1 24 26
M  V30 26 1 26 27
M  V30 27 2 27 28
M  V30 28 1 28 29
M  V30 29 2 29 30
M  V30 30 1 30 31
M  V30 31 1 31 32
M  V30 32 2 32 33
M  V30 33 2 31 34 CFG=2
M  V30 34 1 34 35
M  V30 35 1 35 36
M  V30 36 1 36 37
M  V30 37 2 36 38 CFG=2
M  V30 38 1 11 6
M  V30 39 1 33 28
M  V30 40 1 1 39
M  V30 41 1 1 40
M  V30 42 1 3 41
M  V30 43 1 4 42
M  V30 44 1 7 43
M  V30 45 1 8 44
M  V30 46 1 10 45
M  V30 47 1 11 46
M  V30 48 1 13 47
M  V30 49 1 16 48
M  V30 50 1 17 49
M  V30 51 1 17 50
M  V30 52 1 18 51
M  V30 53 1 18 52
M  V30 54 1 19 53
M  V30 55 1 19 54
M  V30 56 1 20 55
M  V30 57 1 20 56
M  V30 58 1 21 57
M  V30 59 1 21 58
M  V30 60 1 22 59
M  V30 61 1 22 60
M  V30 62 1 23 61
M  V30 63 1 26 62
M  V30 64 1 29 63
M  V30 65 1 30 64
M  V30 66 1 32 65
M  V30 67 1 33 66
M  V30 68 1 35 67
M  V30 69 1 37 68
M  V30 70 1 37 69
M  V30 71 1 38 70
M  V30 END BOND
M  V30 END CTAB
M  END
