
     RDKit          3D

  0  0  0  0  0  0  0  0  0  0999 V3000
M  V30 BEGIN CTAB
M  V30 COUNTS 19 19 0 0 0
M  V30 BEGIN ATOM
M  V30 1 N 3.21863 -0.373245 0.0860093 0
M  V30 2 C 1.82557 -0.0899437 0.00404518 0
M  V30 3 C 0.891383 -1.04916 0.338642 0
M  V30 4 C -0.471564 -0.787801 0.26381 0
M  V30 5 N -1.43415 -1.78051 0.610063 0
M  V30 6 C -0.948213 0.437799 -0.146841 0
M  V30 7 C -0.0171313 1.3991 -0.482117 0
M  V30 8 C 1.34034 1.13412 -0.405999 0
M  V30 9 I -0.731856 3.26956 -1.10897 0
M  V30 10 C -2.40837 0.696874 -0.219898 0
M  V30 11 F -2.73783 1.68567 0.702343 0
M  V30 12 F -2.80642 1.0578 -1.49609 0
M  V30 13 H 3.84478 0.115127 0.794135 0
M  V30 14 H 3.70517 -1.05611 -0.521983 0
M  V30 15 H 1.22695 -2.0097 0.660881 0
M  V30 16 H -2.18138 -2.09401 -0.0480288 0
M  V30 17 H -1.42807 -2.23745 1.54715 0
M  V30 18 H 2.06075 1.88915 -0.669226 0
M  V30 19 H -2.94859 -0.207283 0.0920842 0
M  V30 END ATOM
M  V30 BEGIN BOND
M  V30 1 1 1 2
M  V30 2 2 2 3
M  V30 3 1 3 4
M  V30 4 1 4 5
M  V30 5 2 4 6
M  V30 6 1 6 7
M  V30 7 2 7 8
M  V30 8 1 7 9
M  V30 9 1 6 10
M  V30 10 1 10 11
M  V30 11 1 10 12
M  V30 12 1 8 2
M  V30 13 1 1 13
M  V30 14 1 1 14
M  V30 15 1 3 15
M  V30 16 1 5 16
M  V30 17 1 5 17
M  V30 18 1 8 18
M  V30 19 1 10 19
M  V30 END BOND
M  V30 END CTAB
M  END
