
     RDKit          3D

  0  0  0  0  0  0  0  0  0  0999 V3000
M  V30 BEGIN CTAB
M  V30 COUNTS 23 24 0 0 0
M  V30 BEGIN ATOM
M  V30 1 N 1.61097 2.86974 -0.204505 0
M  V30 2 C 1.57423 1.47966 0.0510078 0
M  V30 3 N 0.388287 0.833278 0.202668 0
M  V30 4 C 0.308616 -0.471178 0.443718 0
M  V30 5 N -0.942308 -1.10189 0.587536 0
M  V30 6 C -2.23661 -0.518334 0.523169 0
M  V30 7 C -2.49936 0.217487 -0.805468 0
M  V30 8 C -2.56361 0.900494 0.545999 0
M  V30 9 C 1.49531 -1.16382 0.537174 0
M  V30 10 C 2.72272 -0.506985 0.382429 0
M  V30 11 N 2.75747 0.809495 0.140442 0
M  V30 12 Cl 4.2315 -1.37423 0.498804 0
M  V30 13 N 1.49508 -2.5631 0.793358 0
M  V30 14 H 0.800665 3.30783 -0.688495 0
M  V30 15 H 2.42284 3.434 0.083003 0
M  V30 16 H -0.919919 -2.16503 0.76973 0
M  V30 17 H -3.08474 -1.21688 0.741527 0
M  V30 18 H -3.42425 0.0511022 -1.34903 0
M  V30 19 H -1.62604 0.520474 -1.4059 0
M  V30 20 H -1.8885 1.72875 0.776031 0
M  V30 21 H -3.62213 1.16825 0.852713 0
M  V30 22 H 1.82875 -3.25292 0.0729187 0
M  V30 23 H 1.17103 -2.98618 1.69271 0
M  V30 END ATOM
M  V30 BEGIN BOND
M  V30 1 1 1 2
M  V30 2 2 2 3
M  V30 3 1 3 4
M  V30 4 1 4 5
M  V30 5 1 5 6
M  V30 6 1 6 7
M  V30 7 1 7 8
M  V30 8 2 4 9
M  V30 9 1 9 10
M  V30 10 2 10 11
M  V30 11 1 10 12
M  V30 12 1 9 13
M  V30 13 1 11 2
M  V30 14 1 8 6
M  V30 15 1 1 14
M  V30 16 1 1 15
M  V30 17 1 5 16
M  V30 18 1 6 17
M  V30 19 1 7 18
M  V30 20 1 7 19
M  V30 21 1 8 20
M  V30 22 1 8 21
M  V30 23 1 13 22
M  V30 24 1 13 23
M  V30 END BOND
M  V30 END CTAB
M  END
