
     RDKit          3D

  0  0  0  0  0  0  0  0  0  0999 V3000
M  V30 BEGIN CTAB
M  V30 COUNTS 28 30 0 0 0
M  V30 BEGIN ATOM
M  V30 1 N 5.41366 1.14625 -0.807052 0
M  V30 2 C 4.1884 0.594556 -0.345818 0
M  V30 3 C 4.21086 -0.375524 0.656348 0
M  V30 4 C 3.07007 -0.949001 1.14748 0
M  V30 5 C 1.85453 -0.557956 0.637587 0
M  V30 6 C 1.78157 0.412234 -0.369125 0
M  V30 7 C 2.96216 0.965284 -0.835704 0
M  V30 8 N 0.487848 0.600395 -0.676699 0
M  V30 9 C -0.230048 -0.219734 0.105873 0
M  V30 10 O 0.603783 -0.886947 0.866999 0
M  V30 11 C -1.69066 -0.376091 0.138872 0
M  V30 12 C -2.34372 -1.24465 0.977158 0
M  V30 13 C -3.71519 -1.37866 0.994972 0
M  V30 14 C -4.49175 -0.610014 0.134253 0
M  V30 15 C -3.85667 0.268925 -0.716313 0
M  V30 16 C -2.46413 0.382418 -0.71113 0
M  V30 17 N -4.6567 1.04952 -1.59139 0
M  V30 18 Cl -6.24548 -0.777105 0.152632 0
M  V30 19 H 6.1896 0.591575 -1.19966 0
M  V30 20 H 5.56967 2.18987 -0.757556 0
M  V30 21 H 5.15958 -0.690647 1.06455 0
M  V30 22 H 3.14037 -1.68963 1.91729 0
M  V30 23 H 2.93959 1.71774 -1.61351 0
M  V30 24 H -1.77321 -1.85558 1.65715 0
M  V30 25 H -4.23687 -2.05834 1.65004 0
M  V30 26 H -1.96903 1.07448 -1.3813 0
M  V30 27 H -4.71217 0.823864 -2.60317 0
M  V30 28 H -5.18606 1.85277 -1.19562 0
M  V30 END ATOM
M  V30 BEGIN BOND
M  V30 1 1 1 2
M  V30 2 2 2 3
M  V30 3 1 3 4
M  V30 4 2 4 5
M  V30 5 1 5 6
M  V30 6 2 6 7
M  V30 7 1 6 8
M  V30 8 2 8 9
M  V30 9 1 9 10
M  V30 10 1 9 11
M  V30 11 2 11 12
M  V30 12 1 12 13
M  V30 13 2 13 14
M  V30 14 1 14 15
M  V30 15 2 15 16
M  V30 16 1 15 17
M  V30 17 1 14 18
M  V30 18 1 7 2
M  V30 19 1 16 11
M  V30 20 1 10 5
M  V30 21 1 1 19
M  V30 22 1 1 20
M  V30 23 1 3 21
M  V30 24 1 4 22
M  V30 25 1 7 23
M  V30 26 1 12 24
M  V30 27 1 13 25
M  V30 28 1 16 26
M  V30 29 1 17 27
M  V30 30 1 17 28
M  V30 END BOND
M  V30 END CTAB
M  END
