
     RDKit          3D

  0  0  0  0  0  0  0  0  0  0999 V3000
M  V30 BEGIN CTAB
M  V30 COUNTS 19 19 0 0 0
M  V30 BEGIN ATOM
M  V30 1 C 3.12882 -0.959613 0.797824 0
M  V30 2 S 2.27571 -0.723262 -0.773736 0
M  V30 3 C 0.528055 -0.407137 -0.549882 0
M  V30 4 N -0.368578 -1.40243 -0.509129 0
M  V30 5 C -1.66809 -1.13991 -0.34106 0
M  V30 6 N -2.66734 -2.13871 -0.288532 0
M  V30 7 N -2.04542 0.144044 -0.215041 0
M  V30 8 C -1.1896 1.17302 -0.24888 0
M  V30 9 N -1.61236 2.51675 -0.113908 0
M  V30 10 C 0.146539 0.915074 -0.420928 0
M  V30 11 N 1.10815 1.96258 -0.465895 0
M  V30 12 O 1.83869 2.27122 0.495513 0
M  V30 13 H 4.08485 -1.51075 0.55981 0
M  V30 14 H 3.42508 -0.0229639 1.28855 0
M  V30 15 H 2.57686 -1.65459 1.47924 0
M  V30 16 H -2.88574 -2.67258 -1.14828 0
M  V30 17 H -3.15591 -2.31756 0.591468 0
M  V30 18 H -1.40886 3.02241 0.771048 0
M  V30 19 H -2.11086 2.94439 -0.908181 0
M  V30 END ATOM
M  V30 BEGIN BOND
M  V30 1 1 1 2
M  V30 2 1 2 3
M  V30 3 2 3 4
M  V30 4 1 4 5
M  V30 5 1 5 6
M  V30 6 2 5 7
M  V30 7 1 7 8
M  V30 8 1 8 9
M  V30 9 2 8 10
M  V30 10 1 10 11
M  V30 11 2 11 12
M  V30 12 1 10 3
M  V30 13 1 1 13
M  V30 14 1 1 14
M  V30 15 1 1 15
M  V30 16 1 6 16
M  V30 17 1 6 17
M  V30 18 1 9 18
M  V30 19 1 9 19
M  V30 END BOND
M  V30 END CTAB
M  END
