
     RDKit          3D

  0  0  0  0  0  0  0  0  0  0999 V3000
M  V30 BEGIN CTAB
M  V30 COUNTS 39 41 0 0 0
M  V30 BEGIN ATOM
M  V30 1 O 0.0957048 0.115625 1.25832 0
M  V30 2 C 0.441406 -0.301684 0.135344 0
M  V30 3 C -0.661294 -0.897579 -0.69018 0
M  V30 4 N -1.91665 -0.873569 -0.0234105 0
M  V30 5 C -2.16206 -1.53004 1.23148 0
M  V30 6 N -2.55346 -0.956821 2.38647 0
M  V30 7 O -2.66801 -1.86878 3.28861 0
M  V30 8 N -2.36992 -3.031 2.78812 0
M  V30 9 C -2.04595 -2.8703 1.50027 0
M  V30 10 N -1.64936 -3.82724 0.526447 0
M  V30 11 N -2.98881 -0.182578 -0.594883 0
M  V30 12 N -2.92646 0.488569 -1.64653 0
M  V30 13 C -4.01085 1.19032 -2.22892 0
M  V30 14 N -4.32048 1.16012 -3.53377 0
M  V30 15 O -5.37837 1.91654 -3.74722 0
M  V30 16 N -5.78501 2.45034 -2.62913 0
M  V30 17 C -4.95319 2.01877 -1.6554 0
M  V30 18 N -5.04724 2.36502 -0.296721 0
M  V30 19 N 1.75745 -0.21634 -0.310851 0
M  V30 20 C 2.89893 0.297344 0.307148 0
M  V30 21 C 2.88779 0.853877 1.54868 0
M  V30 22 C 4.04428 1.35977 2.14511 0
M  V30 23 C 5.22291 1.30273 1.4807 0
M  V30 24 C 5.28515 0.746338 0.216105 0
M  V30 25 C 4.12964 0.258523 -0.340573 0
M  V30 26 N 6.52064 0.685183 -0.483417 0 CHG=1
M  V30 27 O 7.56946 1.12623 0.0181644 0
M  V30 28 O 6.58721 0.135306 -1.73565 0 CHG=-1
M  V30 29 H -0.710077 -0.281282 -1.60752 0
M  V30 30 H -0.310033 -1.90561 -0.984612 0
M  V30 31 H -2.38292 -4.41386 0.0566173 0
M  V30 32 H -0.652701 -3.95598 0.272624 0
M  V30 33 H -4.87168 3.35095 -0.0177542 0
M  V30 34 H -5.2862 1.66017 0.422409 0
M  V30 35 H 1.89103 -0.625909 -1.31297 0
M  V30 36 H 2.013 0.946823 2.15284 0
M  V30 37 H 4.02767 1.79776 3.12582 0
M  V30 38 H 6.13497 1.69436 1.93476 0
M  V30 39 H 4.14347 -0.182084 -1.3257 0
M  V30 END ATOM
M  V30 BEGIN BOND
M  V30 1 2 1 2
M  V30 2 1 2 3
M  V30 3 1 3 4
M  V30 4 1 4 5
M  V30 5 2 5 6
M  V30 6 1 6 7
M  V30 7 1 7 8
M  V30 8 2 8 9
M  V30 9 1 9 10
M  V30 10 1 4 11
M  V30 11 2 11 12
M  V30 12 1 12 13
M  V30 13 2 13 14
M  V30 14 1 14 15
M  V30 15 1 15 16
M  V30 16 2 16 17
M  V30 17 1 17 18
M  V30 18 1 2 19
M  V30 19 1 19 20
M  V30 20 2 20 21
M  V30 21 1 21 22
M  V30 22 2 22 23
M  V30 23 1 23 24
M  V30 24 2 24 25
M  V30 25 1 24 26
M  V30 26 2 26 27
M  V30 27 1 26 28
M  V30 28 1 9 5
M  V30 29 1 17 13
M  V30 30 1 25 20
M  V30 31 1 3 29
M  V30 32 1 3 30
M  V30 33 1 10 31
M  V30 34 1 10 32
M  V30 35 1 18 33
M  V30 36 1 18 34
M  V30 37 1 19 35
M  V30 38 1 21 36
M  V30 39 1 22 37
M  V30 40 1 23 38
M  V30 41 1 25 39
M  V30 END BOND
M  V30 END CTAB
M  END
