
     RDKit          3D

  0  0  0  0  0  0  0  0  0  0999 V3000
M  V30 BEGIN CTAB
M  V30 COUNTS 38 40 0 0 0
M  V30 BEGIN ATOM
M  V30 1 C -3.55419 -2.06661 -3.28553 0
M  V30 2 O -2.58221 -1.77605 -2.30326 0
M  V30 3 C -2.94283 -0.840929 -1.31836 0
M  V30 4 C -4.17656 -0.238155 -1.30948 0
M  V30 5 C -4.53975 0.681151 -0.347314 0
M  V30 6 C -3.64033 1.01067 0.640949 0
M  V30 7 C -2.39931 0.413025 0.643631 0
M  V30 8 C -2.04296 -0.499426 -0.314532 0
M  V30 9 C -0.762011 -1.16608 -0.346789 0
M  V30 10 O -0.739149 -2.36169 -0.732089 0
M  V30 11 C 0.493565 -0.493439 0.0508347 0
M  V30 12 S 0.737953 1.10781 0.555569 0
M  V30 13 C 2.42798 1.07447 0.790458 0
M  V30 14 C 2.75407 -0.208447 0.461777 0
M  V30 15 C 1.75532 -1.03098 0.076043 0
M  V30 16 N 1.9328 -2.42292 -0.303729 0
M  V30 17 C 4.12832 -0.521584 0.569412 0
M  V30 18 C 5.00556 0.4552 0.982697 0
M  V30 19 C 4.65414 1.74366 1.30921 0
M  V30 20 N 3.34327 2.01401 1.19835 0
M  V30 21 N 5.59268 2.7194 1.73037 0
M  V30 22 C 6.40471 0.102729 1.08231 0
M  V30 23 N 7.52531 -0.18388 1.15363 0
M  V30 24 C -4.00845 2.00872 1.70537 0
M  V30 25 H -3.68917 -1.13984 -3.91549 0
M  V30 26 H -3.21832 -2.91212 -3.9444 0
M  V30 27 H -4.49476 -2.37374 -2.79961 0
M  V30 28 H -4.88841 -0.502879 -2.09664 0
M  V30 29 H -5.50228 1.15883 -0.332382 0
M  V30 30 H -1.71458 0.688892 1.447 0
M  V30 31 H 2.22064 -3.08961 0.417764 0
M  V30 32 H 1.7689 -2.70711 -1.27183 0
M  V30 33 H 4.49728 -1.51239 0.333544 0
M  V30 34 H 6.49897 2.45723 2.17996 0
M  V30 35 H 5.42393 3.74134 1.61122 0
M  V30 36 H -4.13525 3.02252 1.26114 0
M  V30 37 H -4.94453 1.6258 2.16448 0
M  V30 38 H -3.19038 2.02245 2.43684 0
M  V30 END ATOM
M  V30 BEGIN BOND
M  V30 1 1 1 2
M  V30 2 1 2 3
M  V30 3 2 3 4
M  V30 4 1 4 5
M  V30 5 2 5 6
M  V30 6 1 6 7
M  V30 7 2 7 8
M  V30 8 1 8 9
M  V30 9 2 9 10
M  V30 10 1 9 11
M  V30 11 1 11 12
M  V30 12 1 12 13
M  V30 13 2 13 14
M  V30 14 1 14 15
M  V30 15 1 15 16
M  V30 16 1 14 17
M  V30 17 2 17 18
M  V30 18 1 18 19
M  V30 19 2 19 20
M  V30 20 1 19 21
M  V30 21 1 18 22
M  V30 22 3 22 23
M  V30 23 1 6 24
M  V30 24 1 8 3
M  V30 25 2 15 11
M  V30 26 1 20 13
M  V30 27 1 1 25
M  V30 28 1 1 26
M  V30 29 1 1 27
M  V30 30 1 4 28
M  V30 31 1 5 29
M  V30 32 1 7 30
M  V30 33 1 16 31
M  V30 34 1 16 32
M  V30 35 1 17 33
M  V30 36 1 21 34
M  V30 37 1 21 35
M  V30 38 1 24 36
M  V30 39 1 24 37
M  V30 40 1 24 38
M  V30 END BOND
M  V30 END CTAB
M  END
