
     RDKit          3D

  0  0  0  0  0  0  0  0  0  0999 V3000
M  V30 BEGIN CTAB
M  V30 COUNTS 23 23 0 0 0
M  V30 BEGIN ATOM
M  V30 1 C -3.56027 0.0515289 -1.09426 0
M  V30 2 C -2.17112 -0.0308998 -0.584955 0
M  V30 3 C -1.11349 -0.269867 -1.44085 0
M  V30 4 N 0.169385 -0.35062 -1.00321 0
M  V30 5 C 0.494637 -0.203844 0.288132 0
M  V30 6 C -0.531074 0.0362132 1.17675 0
M  V30 7 C -1.85613 0.12326 0.750409 0
M  V30 8 N -0.252206 0.199434 2.54771 0
M  V30 9 N 1.8547 -0.292183 0.733154 0
M  V30 10 S 3.07991 -0.594335 -0.436558 0
M  V30 11 O 2.53078 -1.47914 -1.52864 0
M  V30 12 O 4.19447 -1.33282 0.247432 0
M  V30 13 N 3.72245 0.859856 -1.09373 0
M  V30 14 H -4.21523 0.684198 -0.467877 0
M  V30 15 H -4.02826 -0.970521 -1.15487 0
M  V30 16 H -3.61186 0.467493 -2.12314 0
M  V30 17 H -1.33558 -0.396741 -2.51065 0
M  V30 18 H -2.66738 0.309542 1.42803 0
M  V30 19 H 0.65157 0.526536 2.93488 0
M  V30 20 H -0.997624 -0.018349 3.27313 0
M  V30 21 H 2.12665 -0.182528 1.71724 0
M  V30 22 H 3.00853 1.62113 -1.13953 0
M  V30 23 H 4.50716 1.24265 -0.518601 0
M  V30 END ATOM
M  V30 BEGIN BOND
M  V30 1 1 1 2
M  V30 2 2 2 3
M  V30 3 1 3 4
M  V30 4 2 4 5
M  V30 5 1 5 6
M  V30 6 2 6 7
M  V30 7 1 6 8
M  V30 8 1 5 9
M  V30 9 1 9 10
M  V30 10 2 10 11
M  V30 11 2 10 12
M  V30 12 1 10 13
M  V30 13 1 7 2
M  V30 14 1 1 14
M  V30 15 1 1 15
M  V30 16 1 1 16
M  V30 17 1 3 17
M  V30 18 1 7 18
M  V30 19 1 8 19
M  V30 20 1 8 20
M  V30 21 1 9 21
M  V30 22 1 13 22
M  V30 23 1 13 23
M  V30 END BOND
M  V30 END CTAB
M  END
