
     RDKit          3D

  0  0  0  0  0  0  0  0  0  0999 V3000
M  V30 BEGIN CTAB
M  V30 COUNTS 57 61 0 0 0
M  V30 BEGIN ATOM
M  V30 1 N 11.8922 1.57992 -0.4431 0
M  V30 2 C 10.5858 1.02251 -0.472736 0
M  V30 3 C 10.3926 -0.343437 -0.29763 0
M  V30 4 C 9.12978 -0.930546 -0.32342 0
M  V30 5 C 8.05764 -0.106687 -0.530574 0
M  V30 6 C 8.24974 1.27233 -0.707582 0
M  V30 7 C 9.47793 1.84536 -0.682581 0
M  V30 8 C 6.67376 -0.619892 -0.573543 0
M  V30 9 O 6.44858 -1.71533 -1.10797 0
M  V30 10 N 5.68052 0.166993 -0.00461073 0
M  V30 11 C 4.29023 -0.0458411 0.0825161 0
M  V30 12 C 3.60371 -0.882629 -0.761022 0
M  V30 13 C 2.21746 -1.04763 -0.633884 0
M  V30 14 C 1.51072 -0.382706 0.329215 0
M  V30 15 C 2.19247 0.460451 1.1835 0
M  V30 16 C 3.54458 0.621814 1.06064 0
M  V30 17 C 0.0360556 -0.488162 0.468541 0
M  V30 18 N -0.823087 -1.19201 -0.267839 0
M  V30 19 C -2.08683 -0.995387 0.162371 0
M  V30 20 C -1.99252 -0.120458 1.22535 0
M  V30 21 N -0.699973 0.168633 1.38875 0
M  V30 22 C -3.148 0.284158 1.87329 0
M  V30 23 C -4.36864 -0.171871 1.47157 0
M  V30 24 C -4.50107 -1.07496 0.379283 0
M  V30 25 C -3.3243 -1.44778 -0.230484 0
M  V30 26 N -5.77022 -1.40719 0.000628914 0
M  V30 27 C -7.00529 -1.73061 -0.367887 0
M  V30 28 O -7.45465 -2.85876 -0.768361 0
M  V30 29 C -8.12581 -0.706968 -0.355756 0
M  V30 30 C -8.08032 0.207173 -1.37809 0
M  V30 31 C -9.07581 1.1901 -1.40552 0
M  V30 32 C -10.0628 1.24317 -0.448712 0
M  V30 33 C -10.0448 0.284996 0.555443 0
M  V30 34 C -9.07372 -0.71147 0.622234 0
M  V30 35 N -11.0779 2.26286 -0.480434 0
M  V30 36 H 12.5405 1.62723 -1.25474 0
M  V30 37 H 12.2159 1.97601 0.490292 0
M  V30 38 H 11.2299 -1.00037 -0.131977 0
M  V30 39 H 8.99626 -1.99989 -0.183124 0
M  V30 40 H 7.33655 1.86627 -0.872481 0
M  V30 41 H 9.60823 2.90145 -0.816501 0
M  V30 42 H 6.003 1.09996 0.445279 0
M  V30 43 H 4.12608 -1.42709 -1.55278 0
M  V30 44 H 1.69117 -1.71029 -1.29763 0
M  V30 45 H 1.62605 0.98627 1.94868 0
M  V30 46 H 4.10991 1.28527 1.72697 0
M  V30 47 H -0.553372 -1.81066 -1.06771 0
M  V30 48 H -3.01848 0.97919 2.7095 0
M  V30 49 H -5.25402 0.156449 1.99005 0
M  V30 50 H -3.3647 -2.12798 -1.067 0
M  V30 51 H -5.39748 -2.7267 -0.103958 0
M  V30 52 H -7.32187 0.202909 -2.15538 0
M  V30 53 H -9.09548 1.93955 -2.1839 0
M  V30 54 H -10.8122 0.304182 1.32475 0
M  V30 55 H -9.03645 -1.46321 1.38791 0
M  V30 56 H -11.6795 2.45748 -1.29481 0
M  V30 57 H -11.218 2.85382 0.385195 0
M  V30 END ATOM
M  V30 BEGIN BOND
M  V30 1 1 1 2
M  V30 2 2 2 3
M  V30 3 1 3 4
M  V30 4 2 4 5
M  V30 5 1 5 6
M  V30 6 2 6 7
M  V30 7 1 5 8
M  V30 8 2 8 9
M  V30 9 1 8 10
M  V30 10 1 10 11
M  V30 11 2 11 12
M  V30 12 1 12 13
M  V30 13 2 13 14
M  V30 14 1 14 15
M  V30 15 2 15 16
M  V30 16 1 14 17
M  V30 17 1 17 18
M  V30 18 1 18 19
M  V30 19 2 19 20
M  V30 20 1 20 21
M  V30 21 1 20 22
M  V30 22 2 22 23
M  V30 23 1 23 24
M  V30 24 2 24 25
M  V30 25 1 24 26
M  V30 26 1 26 27
M  V30 27 2 27 28
M  V30 28 1 27 29
M  V30 29 2 29 30
M  V30 30 1 30 31
M  V30 31 2 31 32
M  V30 32 1 32 33
M  V30 33 2 33 34
M  V30 34 1 32 35
M  V30 35 1 7 2
M  V30 36 1 16 11
M  V30 37 2 21 17
M  V30 38 1 34 29
M  V30 39 1 25 19
M  V30 40 1 1 36
M  V30 41 1 1 37
M  V30 42 1 3 38
M  V30 43 1 4 39
M  V30 44 1 6 40
M  V30 45 1 7 41
M  V30 46 1 10 42
M  V30 47 1 12 43
M  V30 48 1 13 44
M  V30 49 1 15 45
M  V30 50 1 16 46
M  V30 51 1 18 47
M  V30 52 1 22 48
M  V30 53 1 23 49
M  V30 54 1 25 50
M  V30 55 1 26 51
M  V30 56 1 30 52
M  V30 57 1 31 53
M  V30 58 1 33 54
M  V30 59 1 34 55
M  V30 60 1 35 56
M  V30 61 1 35 57
M  V30 END BOND
M  V30 END CTAB
M  END
