
     RDKit          3D

  0  0  0  0  0  0  0  0  0  0999 V3000
M  V30 BEGIN CTAB
M  V30 COUNTS 51 54 0 0 0
M  V30 BEGIN ATOM
M  V30 1 N -6.38095 -3.04584 0.0139437 0
M  V30 2 C -5.86794 -1.72512 0.0772964 0
M  V30 3 N -6.57946 -0.768007 0.680457 0
M  V30 4 C -6.17553 0.496837 0.786044 0
M  V30 5 N -7.03555 1.41696 1.45643 0
M  V30 6 N -4.99238 0.847555 0.264233 0
M  V30 7 C -4.22021 -0.0772034 -0.362147 0
M  V30 8 C -4.6366 -1.37184 -0.468611 0
M  V30 9 N -2.98399 0.336833 -0.893285 0
M  V30 10 C -2.07869 -0.517 -1.62099 0
M  V30 11 C -0.774267 -0.599345 -0.839412 0
M  V30 12 C -0.243327 0.823191 -0.681086 0
M  V30 13 C -1.2454 1.58705 0.123046 0
M  V30 14 C -2.50975 1.72598 -0.732206 0
M  V30 15 C 1.07367 0.709676 0.0120175 0
M  V30 16 N 1.30144 0.265826 1.26116 0
M  V30 17 N 2.57888 0.306314 1.53258 0
M  V30 18 C 3.24286 0.782037 0.463377 0
M  V30 19 N 2.30179 1.02689 -0.467762 0
M  V30 20 C 2.5787 1.54929 -1.77653 0
M  V30 21 C 4.69892 0.965673 0.406338 0
M  V30 22 N 5.41555 -0.168019 -0.0719387 0
M  V30 23 C 5.72021 -0.411785 -1.35472 0
M  V30 24 C 6.41502 -1.59401 -1.44043 0
M  V30 25 N 6.52573 -2.06411 -0.176716 0
M  V30 26 C 5.9149 -1.1873 0.635469 0
M  V30 27 C 5.79588 -1.30657 2.10895 0
M  V30 28 H -5.86084 -3.8385 0.439914 0
M  V30 29 H -7.28587 -3.27148 -0.454923 0
M  V30 30 H -6.65267 2.13773 2.09889 0
M  V30 31 H -8.06017 1.35513 1.29137 0
M  V30 32 H -4.08134 -2.15034 -0.945899 0
M  V30 33 H -2.45157 -1.49816 -1.88422 0
M  V30 34 H -1.85227 -0.00162563 -2.60202 0
M  V30 35 H -0.0623635 -1.23522 -1.38257 0
M  V30 36 H -1.00925 -0.994307 0.168222 0
M  V30 37 H -0.10922 1.21927 -1.70608 0
M  V30 38 H -0.882468 2.57922 0.454847 0
M  V30 39 H -1.50193 0.994017 1.02279 0
M  V30 40 H -2.25252 2.05674 -1.76098 0
M  V30 41 H -3.26602 2.34977 -0.24939 0
M  V30 42 H 2.43456 0.781313 -2.58343 0
M  V30 43 H 3.55646 2.02977 -1.80741 0
M  V30 44 H 1.79169 2.32677 -2.00008 0
M  V30 45 H 4.96253 1.91186 -0.15395 0
M  V30 46 H 5.07734 1.17566 1.45118 0
M  V30 47 H 5.4868 0.186549 -2.23778 0
M  V30 48 H 6.79373 -2.04797 -2.3511 0
M  V30 49 H 6.58672 -1.99642 2.51812 0
M  V30 50 H 4.82012 -1.7505 2.39157 0
M  V30 51 H 5.97904 -0.323235 2.57932 0
M  V30 END ATOM
M  V30 BEGIN BOND
M  V30 1 1 1 2
M  V30 2 2 2 3
M  V30 3 1 3 4
M  V30 4 1 4 5
M  V30 5 2 4 6
M  V30 6 1 6 7
M  V30 7 2 7 8
M  V30 8 1 7 9
M  V30 9 1 9 10
M  V30 10 1 10 11
M  V30 11 1 11 12
M  V30 12 1 12 13
M  V30 13 1 13 14
M  V30 14 1 12 15
M  V30 15 2 15 16
M  V30 16 1 16 17
M  V30 17 2 17 18
M  V30 18 1 18 19
M  V30 19 1 19 20
M  V30 20 1 18 21
M  V30 21 1 21 22
M  V30 22 1 22 23
M  V30 23 2 23 24
M  V30 24 1 24 25
M  V30 25 2 25 26
M  V30 26 1 26 27
M  V30 27 1 8 2
M  V30 28 1 14 9
M  V30 29 1 19 15
M  V30 30 1 26 22
M  V30 31 1 1 28
M  V30 32 1 1 29
M  V30 33 1 5 30
M  V30 34 1 5 31
M  V30 35 1 8 32
M  V30 36 1 10 33
M  V30 37 1 10 34
M  V30 38 1 11 35
M  V30 39 1 11 36
M  V30 40 1 12 37
M  V30 41 1 13 38
M  V30 42 1 13 39
M  V30 43 1 14 40
M  V30 44 1 14 41
M  V30 45 1 20 42
M  V30 46 1 20 43
M  V30 47 1 20 44
M  V30 48 1 21 45
M  V30 49 1 21 46
M  V30 50 1 23 47
M  V30 51 1 24 48
M  V30 52 1 27 49
M  V30 53 1 27 50
M  V30 54 1 27 51
M  V30 END BOND
M  V30 END CTAB
M  END
