
     RDKit          3D

  0  0  0  0  0  0  0  0  0  0999 V3000
M  V30 BEGIN CTAB
M  V30 COUNTS 31 33 0 0 0
M  V30 BEGIN ATOM
M  V30 1 O 2.51102 -1.39011 2.68483 0
M  V30 2 C 2.11771 -1.06909 1.52321 0
M  V30 3 N 0.96043 -1.55164 0.856225 0
M  V30 4 C 0.0661165 -2.50707 1.42583 0
M  V30 5 S -1.22067 -1.666 2.36642 0
M  V30 6 C -2.24845 -0.707314 1.27925 0
M  V30 7 N -3.34711 -1.19682 0.665316 0
M  V30 8 C -4.10846 -0.412305 -0.149814 0
M  V30 9 N -5.26718 -0.915894 -0.801166 0
M  V30 10 N -3.72135 0.865786 -0.317044 0
M  V30 11 C -2.63395 1.39512 0.275185 0
M  V30 12 N -1.92126 0.579734 1.06617 0
M  V30 13 N -2.21741 2.74426 0.104908 0
M  V30 14 C 0.937833 -0.908419 -0.4156 0
M  V30 15 O 0.07092 -1.06939 -1.3051 0
M  V30 16 C 2.09715 -0.0277613 -0.512571 0
M  V30 17 C 2.79345 -0.130213 0.645815 0
M  V30 18 C 3.95969 0.623229 0.801773 0
M  V30 19 C 4.38366 1.451 -0.209751 0
M  V30 20 C 3.68143 1.55549 -1.38035 0
M  V30 21 C 2.53582 0.813653 -1.53028 0
M  V30 22 H 0.6149 -3.16642 2.15217 0
M  V30 23 H -0.355433 -3.15956 0.623464 0
M  V30 24 H -5.13854 -1.76896 -1.38916 0
M  V30 25 H -6.20581 -0.506819 -0.735154 0
M  V30 26 H -1.27089 2.96488 -0.280229 0
M  V30 27 H -2.86772 3.51428 0.369111 0
M  V30 28 H 4.49494 0.517348 1.74371 0
M  V30 29 H 5.28575 2.02246 -0.0667697 0
M  V30 30 H 4.03469 2.21348 -2.16269 0
M  V30 31 H 1.97875 0.89307 -2.45377 0
M  V30 END ATOM
M  V30 BEGIN BOND
M  V30 1 2 1 2
M  V30 2 1 2 3
M  V30 3 1 3 4
M  V30 4 1 4 5
M  V30 5 1 5 6
M  V30 6 2 6 7
M  V30 7 1 7 8
M  V30 8 1 8 9
M  V30 9 2 8 10
M  V30 10 1 10 11
M  V30 11 2 11 12
M  V30 12 1 11 13
M  V30 13 1 3 14
M  V30 14 2 14 15
M  V30 15 1 14 16
M  V30 16 2 16 17
M  V30 17 1 17 18
M  V30 18 2 18 19
M  V30 19 1 19 20
M  V30 20 2 20 21
M  V30 21 1 17 2
M  V30 22 1 12 6
M  V30 23 1 21 16
M  V30 24 1 4 22
M  V30 25 1 4 23
M  V30 26 1 9 24
M  V30 27 1 9 25
M  V30 28 1 13 26
M  V30 29 1 13 27
M  V30 30 1 18 28
M  V30 31 1 19 29
M  V30 32 1 20 30
M  V30 33 1 21 31
M  V30 END BOND
M  V30 END CTAB
M  END
