
     RDKit          3D

  0  0  0  0  0  0  0  0  0  0999 V3000
M  V30 BEGIN CTAB
M  V30 COUNTS 26 26 0 0 0
M  V30 BEGIN ATOM
M  V30 1 C 3.9817 -1.96931 -2.24931 0
M  V30 2 C 2.74455 -1.31243 -1.64239 0
M  V30 3 C 2.09971 -1.8947 -0.672723 0
M  V30 4 C 0.910934 -1.37858 -0.00822764 0
M  V30 5 N 0.492722 -0.11955 -0.535843 0
M  V30 6 C -0.678614 0.494003 0.0444285 0
M  V30 7 C -1.13838 1.70909 -0.416163 0
M  V30 8 C -2.25846 2.29758 0.137461 0
M  V30 9 N -2.77056 3.54354 -0.299634 0
M  V30 10 N -2.88791 1.6547 1.13646 0
M  V30 11 C -2.45738 0.450095 1.61495 0
M  V30 12 N -1.35862 -0.0798298 1.0384 0
M  V30 13 N -3.15562 -0.184831 2.6679 0
M  V30 14 H 3.75427 -2.33207 -3.26966 0
M  V30 15 H 4.27006 -2.80143 -1.59536 0
M  V30 16 H 4.75832 -1.18637 -2.32583 0
M  V30 17 H 2.49942 -0.373772 -2.09339 0
M  V30 18 H 2.49213 -2.87356 -0.320847 0
M  V30 19 H 0.0394187 -2.10536 -0.0854297 0
M  V30 20 H 1.08331 -1.32704 1.10573 0
M  V30 21 H 0.952118 0.388586 -1.29246 0
M  V30 22 H -0.627709 2.22387 -1.22184 0
M  V30 23 H -3.76599 3.79842 -0.152969 0
M  V30 24 H -2.14905 4.22065 -0.775668 0
M  V30 25 H -3.89473 -0.879587 2.46688 0
M  V30 26 H -2.93563 0.0378944 3.65327 0
M  V30 END ATOM
M  V30 BEGIN BOND
M  V30 1 1 1 2
M  V30 2 2 2 3 CFG=2
M  V30 3 1 3 4
M  V30 4 1 4 5
M  V30 5 1 5 6
M  V30 6 2 6 7
M  V30 7 1 7 8
M  V30 8 1 8 9
M  V30 9 2 8 10
M  V30 10 1 10 11
M  V30 11 2 11 12
M  V30 12 1 11 13
M  V30 13 1 12 6
M  V30 14 1 1 14
M  V30 15 1 1 15
M  V30 16 1 1 16
M  V30 17 1 2 17
M  V30 18 1 3 18
M  V30 19 1 4 19
M  V30 20 1 4 20
M  V30 21 1 5 21
M  V30 22 1 7 22
M  V30 23 1 9 23
M  V30 24 1 9 24
M  V30 25 1 13 25
M  V30 26 1 13 26
M  V30 END BOND
M  V30 END CTAB
M  END
