
     RDKit          3D

  0  0  0  0  0  0  0  0  0  0999 V3000
M  V30 BEGIN CTAB
M  V30 COUNTS 59 61 0 0 0
M  V30 BEGIN ATOM
M  V30 1 C -9.39327 0.394463 1.57894 0
M  V30 2 O -8.75045 1.10947 0.504081 0
M  V30 3 C -7.40296 0.77593 0.291871 0
M  V30 4 C -6.70625 1.42573 -0.730005 0
M  V30 5 N -7.41281 2.41279 -1.49972 0
M  V30 6 C -5.38931 1.14112 -0.98127 0
M  V30 7 C -4.67168 0.193035 -0.232619 0
M  V30 8 C -3.26991 -0.0850261 -0.501278 0
M  V30 9 N -2.53352 -0.844881 0.373154 0
M  V30 10 C -2.64409 -2.20415 0.624931 0
M  V30 11 C -1.14928 -2.617 0.736778 0
M  V30 12 C -0.630396 -1.49515 1.60394 0 CFG=2
M  V30 13 C -1.32388 -0.296121 0.942089 0
M  V30 14 N 0.771027 -1.43869 1.73762 0
M  V30 15 C 1.72218 -1.02038 0.768934 0
M  V30 16 O 1.33072 -0.628244 -0.353623 0
M  V30 17 C 3.14312 -1.03595 1.06152 0
M  V30 18 N 3.97731 -0.440361 -0.00535358 0
M  V30 19 C 5.36572 -0.410957 0.181009 0
M  V30 20 O 5.86705 -0.95241 1.26138 0
M  V30 21 C 6.3185 0.18942 -0.7283 0
M  V30 22 C 5.98768 1.00324 -1.75089 0
M  V30 23 C 6.88663 1.66424 -2.53894 0
M  V30 24 C 8.21275 1.48867 -2.28458 0
M  V30 25 C 8.57654 0.654937 -1.23551 0
M  V30 26 C 7.69713 -0.00172458 -0.443773 0
M  V30 27 N 8.15514 -0.843416 0.579529 0
M  V30 28 C 6.51539 2.65716 -3.61851 0
M  V30 29 F 6.6192 2.02329 -4.83463 0
M  V30 30 F 5.26371 3.14231 -3.38189 0
M  V30 31 F 7.4629 3.70388 -3.6225 0
M  V30 32 C -5.37374 -0.435231 0.770646 0
M  V30 33 C -6.71905 -0.143428 1.02259 0
M  V30 34 H -8.85155 0.466626 2.53028 0
M  V30 35 H -9.55011 -0.652275 1.25636 0
M  V30 36 H -10.4364 0.82448 1.75417 0
M  V30 37 H -8.38988 2.65958 -1.25414 0
M  V30 38 H -6.96174 2.89669 -2.29205 0
M  V30 39 H -4.87039 1.63241 -1.78862 0
M  V30 40 H -3.17312 -0.605958 -1.54342 0
M  V30 41 H -2.68556 0.865537 -0.735217 0
M  V30 42 H -2.96834 -2.75692 -0.322132 0
M  V30 43 H -3.20294 -2.60704 1.44102 0
M  V30 44 H -0.757125 -2.46483 -0.298277 0
M  V30 45 H -1.00324 -3.5654 1.16902 0
M  V30 46 H -1.10085 -1.49607 2.63488 0
M  V30 47 H -1.50152 0.548905 1.60976 0
M  V30 48 H -0.706418 0.0493663 0.109643 0
M  V30 49 H 1.23784 -1.72682 2.66537 0
M  V30 50 H 3.41679 -0.470787 1.99852 0
M  V30 51 H 3.49971 -2.11611 1.1359 0
M  V30 52 H 3.54936 -0.0790585 -0.864168 0
M  V30 53 H 4.91397 1.17457 -1.98989 0
M  V30 54 H 8.99868 1.95648 -2.83945 0
M  V30 55 H 9.63956 0.535833 -1.04809 0
M  V30 56 H 8.6705 -0.465999 1.39252 0
M  V30 57 H 7.95327 -1.88869 0.486743 0
M  V30 58 H -4.95675 -1.15768 1.44278 0
M  V30 59 H -7.26585 -0.643402 1.83978 0
M  V30 END ATOM
M  V30 BEGIN BOND
M  V30 1 1 1 2
M  V30 2 1 2 3
M  V30 3 2 3 4
M  V30 4 1 4 5
M  V30 5 1 4 6
M  V30 6 2 6 7
M  V30 7 1 7 8
M  V30 8 1 8 9
M  V30 9 1 9 10
M  V30 10 1 10 11
M  V30 11 1 11 12
M  V30 12 1 12 13
M  V30 13 1 12 14
M  V30 14 1 14 15
M  V30 15 2 15 16
M  V30 16 1 15 17
M  V30 17 1 17 18
M  V30 18 1 18 19
M  V30 19 2 19 20
M  V30 20 1 19 21
M  V30 21 2 21 22
M  V30 22 1 22 23
M  V30 23 2 23 24
M  V30 24 1 24 25
M  V30 25 2 25 26
M  V30 26 1 26 27
M  V30 27 1 23 28
M  V30 28 1 28 29
M  V30 29 1 28 30
M  V30 30 1 28 31
M  V30 31 1 7 32
M  V30 32 2 32 33
M  V30 33 1 33 3
M  V30 34 1 13 9
M  V30 35 1 26 21
M  V30 36 1 1 34
M  V30 37 1 1 35
M  V30 38 1 1 36
M  V30 39 1 5 37
M  V30 40 1 5 38
M  V30 41 1 6 39
M  V30 42 1 8 40
M  V30 43 1 8 41
M  V30 44 1 10 42
M  V30 45 1 10 43
M  V30 46 1 11 44
M  V30 47 1 11 45
M  V30 48 1 12 46 CFG=1
M  V30 49 1 13 47
M  V30 50 1 13 48
M  V30 51 1 14 49
M  V30 52 1 17 50
M  V30 53 1 17 51
M  V30 54 1 18 52
M  V30 55 1 22 53
M  V30 56 1 24 54
M  V30 57 1 25 55
M  V30 58 1 27 56
M  V30 59 1 27 57
M  V30 60 1 32 58
M  V30 61 1 33 59
M  V30 END BOND
M  V30 END CTAB
M  END
