
     RDKit          3D

  0  0  0  0  0  0  0  0  0  0999 V3000
M  V30 BEGIN CTAB
M  V30 COUNTS 62 65 0 0 0
M  V30 BEGIN ATOM
M  V30 1 C -4.88013 -2.55418 -0.83776 0
M  V30 2 C -3.3664 -2.66103 -0.660338 0
M  V30 3 C -2.79734 -3.17577 -1.94998 0
M  V30 4 C -3.12986 -3.67694 0.429429 0
M  V30 5 C -2.87195 -1.29792 -0.283397 0
M  V30 6 N -1.43597 -1.27117 -0.0858704 0
M  V30 7 C -0.7505 -0.0682958 0.279776 0
M  V30 8 N 0.583823 -0.116941 0.446544 0
M  V30 9 C 1.25045 1.00733 0.791706 0
M  V30 10 C 0.551316 2.18238 0.966395 0
M  V30 11 N 1.457 3.10419 1.29716 0
M  V30 12 C 2.67051 2.52738 1.32735 0
M  V30 13 N 2.57926 1.22565 1.0185 0
M  V30 14 C 3.61674 0.241912 0.932476 0
M  V30 15 C 4.18954 0.191304 -0.49049 0
M  V30 16 C 5.25676 -0.8129 -0.600262 0
M  V30 17 C 6.5756 -0.422333 -0.346438 0
M  V30 18 C 7.61349 -1.30795 -0.431479 0
M  V30 19 C 7.35053 -2.60841 -0.773947 0
M  V30 20 N 8.42098 -3.53976 -0.865949 0
M  V30 21 C 6.0556 -3.0435 -1.03549 0
M  V30 22 C 5.03243 -2.13007 -0.942012 0
M  V30 23 C -0.841251 2.25674 0.797729 0
M  V30 24 N -1.48939 3.47341 1.00007 0
M  V30 25 C -2.83398 3.82211 0.891313 0
M  V30 26 C -3.23989 5.05573 1.39269 0
M  V30 27 C -4.56012 5.40892 1.27709 0
M  V30 28 C -5.48971 4.58511 0.683834 0
M  V30 29 C -5.12798 3.3598 0.176684 0
M  V30 30 N -6.06192 2.48379 -0.442422 0
M  V30 31 C -3.77312 3.01526 0.303662 0
M  V30 32 N -1.40418 1.09158 0.457067 0
M  V30 33 H -5.13726 -1.83019 -1.6481 0
M  V30 34 H -5.25044 -3.57777 -1.05126 0
M  V30 35 H -5.35324 -2.2314 0.117887 0
M  V30 36 H -2.35533 -2.35271 -2.56763 0
M  V30 37 H -3.58239 -3.72405 -2.54284 0
M  V30 38 H -2.00482 -3.94007 -1.76406 0
M  V30 39 H -3.81781 -3.41045 1.28041 0
M  V30 40 H -2.08748 -3.74559 0.755889 0
M  V30 41 H -3.46211 -4.65601 0.0478257 0
M  V30 42 H -3.12892 -0.609201 -1.1188 0
M  V30 43 H -3.38767 -0.981097 0.628563 0
M  V30 44 H -0.922379 -2.14629 -0.216941 0
M  V30 45 H 3.62462 3.00718 1.56383 0
M  V30 46 H 3.28447 -0.783003 1.1679 0
M  V30 47 H 4.48033 0.461644 1.59408 0
M  V30 48 H 3.37902 0.0599732 -1.23456 0
M  V30 49 H 4.63 1.194 -0.671641 0
M  V30 50 H 6.7731 0.606688 -0.0767424 0
M  V30 51 H 8.65487 -1.03593 -0.239752 0
M  V30 52 H 8.98088 -3.83243 -0.0288307 0
M  V30 53 H 8.70277 -3.97882 -1.77266 0
M  V30 54 H 5.92169 -4.0704 -1.29693 0
M  V30 55 H 4.01893 -2.4479 -1.14128 0
M  V30 56 H -0.837584 4.28762 1.28568 0
M  V30 57 H -2.53648 5.75263 1.87724 0
M  V30 58 H -4.85137 6.39234 1.68376 0
M  V30 59 H -6.52607 4.88552 0.604311 0
M  V30 60 H -7.05532 2.56258 -0.209906 0
M  V30 61 H -5.76106 1.76129 -1.12883 0
M  V30 62 H -3.54329 2.03642 -0.124398 0
M  V30 END ATOM
M  V30 BEGIN BOND
M  V30 1 1 1 2
M  V30 2 1 2 3
M  V30 3 1 2 4
M  V30 4 1 2 5
M  V30 5 1 5 6
M  V30 6 1 6 7
M  V30 7 2 7 8
M  V30 8 1 8 9
M  V30 9 2 9 10
M  V30 10 1 10 11
M  V30 11 2 11 12
M  V30 12 1 12 13
M  V30 13 1 13 14
M  V30 14 1 14 15
M  V30 15 1 15 16
M  V30 16 2 16 17
M  V30 17 1 17 18
M  V30 18 2 18 19
M  V30 19 1 19 20
M  V30 20 1 19 21
M  V30 21 2 21 22
M  V30 22 1 10 23
M  V30 23 1 23 24
M  V30 24 1 24 25
M  V30 25 2 25 26
M  V30 26 1 26 27
M  V30 27 2 27 28
M  V30 28 1 28 29
M  V30 29 1 29 30
M  V30 30 2 29 31
M  V30 31 2 23 32
M  V30 32 1 32 7
M  V30 33 1 13 9
M  V30 34 1 22 16
M  V30 35 1 31 25
M  V30 36 1 1 33
M  V30 37 1 1 34
M  V30 38 1 1 35
M  V30 39 1 3 36
M  V30 40 1 3 37
M  V30 41 1 3 38
M  V30 42 1 4 39
M  V30 43 1 4 40
M  V30 44 1 4 41
M  V30 45 1 5 42
M  V30 46 1 5 43
M  V30 47 1 6 44
M  V30 48 1 12 45
M  V30 49 1 14 46
M  V30 50 1 14 47
M  V30 51 1 15 48
M  V30 52 1 15 49
M  V30 53 1 17 50
M  V30 54 1 18 51
M  V30 55 1 20 52
M  V30 56 1 20 53
M  V30 57 1 21 54
M  V30 58 1 22 55
M  V30 59 1 24 56
M  V30 60 1 26 57
M  V30 61 1 27 58
M  V30 62 1 28 59
M  V30 63 1 30 60
M  V30 64 1 30 61
M  V30 65 1 31 62
M  V30 END BOND
M  V30 END CTAB
M  END
