
     RDKit          3D

  0  0  0  0  0  0  0  0  0  0999 V3000
M  V30 BEGIN CTAB
M  V30 COUNTS 67 69 0 0 0
M  V30 BEGIN ATOM
M  V30 1 C 0.454306 -2.92233 -3.21526 0
M  V30 2 O -0.639301 -2.36308 -2.57113 0
M  V30 3 C -0.692519 -1.54622 -1.49886 0
M  V30 4 C 0.432488 -1.1505 -0.818591 0
M  V30 5 C 0.306353 -0.313336 0.274982 0
M  V30 6 C -0.92273 0.0975957 0.65022 0
M  V30 7 C -2.14658 -0.264429 -0.00474328 0
M  V30 8 C -1.93594 -1.08311 -1.05696 0
M  V30 9 C -3.34281 0.333938 0.524863 0
M  V30 10 C -3.75204 1.5536 0.0506913 0
M  V30 11 C -4.81615 2.20448 0.76189 0
M  V30 12 C -5.4045 1.6739 1.84546 0
M  V30 13 C -4.95395 0.438169 2.28936 0
M  V30 14 C -3.90918 -0.2662 1.63101 0
M  V30 15 C -3.61962 -1.63104 1.99512 0
M  V30 16 C -3.06354 -2.01707 3.31565 0
M  V30 17 C -3.79621 -2.73123 0.960544 0
M  V30 18 C -3.15114 2.31354 -0.989327 0
M  V30 19 C -4.00394 3.55848 -1.37439 0
M  V30 20 C -2.41401 1.83087 -2.16119 0
M  V30 21 C 1.4062 0.223761 1.10064 0
M  V30 22 C 1.06807 1.72663 1.28166 0
M  V30 23 C 2.67548 0.0767785 0.461101 0
M  V30 24 C 3.76755 -0.0174884 -0.0354073 0
M  V30 25 C 5.08941 -0.0877237 -0.576907 0
M  V30 26 C 6.20043 -0.186493 0.240404 0
M  V30 27 C 5.90755 -0.250638 1.71121 0
M  V30 28 N 7.46793 -0.223075 -0.248383 0
M  V30 29 C 7.6747 -0.160137 -1.57072 0
M  V30 30 N 9.02111 -0.197166 -2.10901 0
M  V30 31 N 6.63374 -0.0629305 -2.39245 0
M  V30 32 C 5.34766 -0.0207591 -1.92693 0
M  V30 33 N 4.22334 0.0893544 -2.80922 0
M  V30 34 H 1.02208 -3.6592 -2.61659 0
M  V30 35 H 0.185039 -3.41753 -4.18703 0
M  V30 36 H 1.09196 -2.04314 -3.50367 0
M  V30 37 H 1.42951 -1.45356 -1.0697 0
M  V30 38 H -1.04425 0.755535 1.49883 0
M  V30 39 H -2.79376 -1.38762 -1.6197 0
M  V30 40 H -5.15821 3.16038 0.408345 0
M  V30 41 H -6.21351 2.19194 2.38135 0
M  V30 42 H -5.43612 0.0441617 3.16854 0
M  V30 43 H -4.84093 -1.87454 2.42307 0
M  V30 44 H -2.11953 -1.4728 3.56817 0
M  V30 45 H -2.86608 -3.12723 3.25459 0
M  V30 46 H -3.6896 -1.8936 4.21433 0
M  V30 47 H -4.45877 -3.57324 1.33514 0
M  V30 48 H -4.41435 -2.37442 0.0993729 0
M  V30 49 H -2.88067 -3.27723 0.708731 0
M  V30 50 H -2.31238 2.91725 -0.416224 0
M  V30 51 H -3.92422 4.35685 -0.654015 0
M  V30 52 H -3.52746 3.9203 -2.32366 0
M  V30 53 H -5.05965 3.30575 -1.54332 0
M  V30 54 H -2.31242 2.7508 -2.89701 0
M  V30 55 H -2.88533 1.12077 -2.83072 0
M  V30 56 H -1.35047 1.67525 -1.93137 0
M  V30 57 H 1.33638 -0.207951 2.13912 0
M  V30 58 H 0.323999 1.96516 0.507256 0
M  V30 59 H 1.98964 2.32135 1.15792 0
M  V30 60 H 0.592354 1.87613 2.24905 0
M  V30 61 H 5.80688 -1.35609 1.91414 0
M  V30 62 H 6.72333 0.240102 2.2515 0
M  V30 63 H 4.92626 0.182156 1.93067 0
M  V30 64 H 9.74267 0.495276 -1.8694 0
M  V30 65 H 9.2999 -0.958268 -2.77366 0
M  V30 66 H 3.67032 0.949989 -2.87507 0
M  V30 67 H 4.03524 -0.778883 -3.36502 0
M  V30 END ATOM
M  V30 BEGIN BOND
M  V30 1 1 1 2
M  V30 2 1 2 3
M  V30 3 2 3 4
M  V30 4 1 4 5
M  V30 5 2 5 6
M  V30 6 1 6 7
M  V30 7 2 7 8
M  V30 8 1 7 9
M  V30 9 2 9 10
M  V30 10 1 10 11
M  V30 11 2 11 12
M  V30 12 1 12 13
M  V30 13 2 13 14
M  V30 14 1 14 15
M  V30 15 1 15 16
M  V30 16 1 15 17
M  V30 17 1 10 18
M  V30 18 1 18 19
M  V30 19 1 18 20
M  V30 20 1 5 21
M  V30 21 1 21 22
M  V30 22 1 21 23
M  V30 23 3 23 24
M  V30 24 1 24 25
M  V30 25 2 25 26
M  V30 26 1 26 27
M  V30 27 1 26 28
M  V30 28 2 28 29
M  V30 29 1 29 30
M  V30 30 1 29 31
M  V30 31 2 31 32
M  V30 32 1 32 33
M  V30 33 1 8 3
M  V30 34 1 14 9
M  V30 35 1 32 25
M  V30 36 1 1 34
M  V30 37 1 1 35
M  V30 38 1 1 36
M  V30 39 1 4 37
M  V30 40 1 6 38
M  V30 41 1 8 39
M  V30 42 1 11 40
M  V30 43 1 12 41
M  V30 44 1 13 42
M  V30 45 1 15 43
M  V30 46 1 16 44
M  V30 47 1 16 45
M  V30 48 1 16 46
M  V30 49 1 17 47
M  V30 50 1 17 48
M  V30 51 1 17 49
M  V30 52 1 18 50
M  V30 53 1 19 51
M  V30 54 1 19 52
M  V30 55 1 19 53
M  V30 56 1 20 54
M  V30 57 1 20 55
M  V30 58 1 20 56
M  V30 59 1 21 57
M  V30 60 1 22 58
M  V30 61 1 22 59
M  V30 62 1 22 60
M  V30 63 1 27 61
M  V30 64 1 27 62
M  V30 65 1 27 63
M  V30 66 1 30 64
M  V30 67 1 30 65
M  V30 68 1 33 66
M  V30 69 1 33 67
M  V30 END BOND
M  V30 END CTAB
M  END
