
     RDKit          3D

  0  0  0  0  0  0  0  0  0  0999 V3000
M  V30 BEGIN CTAB
M  V30 COUNTS 53 52 0 0 0
M  V30 BEGIN ATOM
M  V30 1 N 7.97762 -1.52267 0.0230531 0
M  V30 2 C 6.86469 -0.785545 0.589062 0
M  V30 3 C 5.79194 -0.504627 -0.418977 0
M  V30 4 C 4.69098 0.277689 0.31684 0
M  V30 5 C 3.58065 0.596461 -0.630754 0
M  V30 6 C 2.47183 1.36964 0.000268174 0
M  V30 7 C 1.78908 0.681811 1.1523 0
M  V30 8 C 1.16009 -0.608028 0.862023 0
M  V30 9 C 0.12737 -0.82452 -0.127598 0
M  V30 10 C -1.21657 -0.198538 -0.0499856 0
M  V30 11 C -1.20868 1.27316 -0.136863 0
M  V30 12 C -2.51387 1.98896 -0.0810896 0
M  V30 13 C -3.5253 1.71537 -1.13267 0
M  V30 14 N -4.02635 0.387372 -1.18996 0
M  V30 15 C -4.84945 -0.00626764 -0.0751375 0
M  V30 16 C -5.28761 -1.43958 -0.343947 0
M  V30 17 C -6.15867 -1.91167 0.78971 0
M  V30 18 N -7.32602 -1.0567 0.889882 0
M  V30 19 H 8.90007 -1.13613 0.320988 0
M  V30 20 H 7.9076 -1.65359 -1.0073 0
M  V30 21 H 6.43349 -1.27169 1.47223 0
M  V30 22 H 7.27978 0.193238 0.938063 0
M  V30 23 H 5.37808 -1.43003 -0.859046 0
M  V30 24 H 6.20733 0.0865398 -1.24426 0
M  V30 25 H 5.16145 1.21413 0.668934 0
M  V30 26 H 4.40724 -0.38666 1.15922 0
M  V30 27 H 4.02582 1.27544 -1.41571 0
M  V30 28 H 3.23392 -0.290696 -1.201 0
M  V30 29 H 1.8035 1.79056 -0.756428 0
M  V30 30 H 2.96391 2.2809 0.465121 0
M  V30 31 H 1.29037 1.41309 1.77552 0
M  V30 32 H 2.70064 0.400684 1.83658 0
M  V30 33 H 1.98612 -1.41188 0.762307 0
M  V30 34 H 0.718804 -0.956965 1.87728 0
M  V30 35 H -0.0763579 -1.95632 -0.152318 0
M  V30 36 H 0.48271 -0.604298 -1.19373 0
M  V30 37 H -1.8823 -0.638867 -0.855021 0
M  V30 38 H -1.69056 -0.464664 0.949797 0
M  V30 39 H -0.585194 1.6466 0.734789 0
M  V30 40 H -0.639552 1.56041 -1.07977 0
M  V30 41 H -3.03156 1.75821 0.910482 0
M  V30 42 H -2.31963 3.10337 0.0096849 0
M  V30 43 H -3.1036 1.97631 -2.14664 0
M  V30 44 H -4.39612 2.41273 -0.920049 0
M  V30 45 H -4.38641 0.109969 -2.10859 0
M  V30 46 H -5.70856 0.692217 -0.0230414 0
M  V30 47 H -4.31061 0.0700457 0.894631 0
M  V30 48 H -5.87215 -1.43492 -1.27864 0
M  V30 49 H -4.3933 -2.06985 -0.4421 0
M  V30 50 H -6.479 -2.95625 0.643235 0
M  V30 51 H -5.6288 -1.86315 1.75328 0
M  V30 52 H -7.13536 -0.253816 1.54751 0
M  V30 53 H -7.5835 -0.636974 -0.0231754 0
M  V30 END ATOM
M  V30 BEGIN BOND
M  V30 1 1 1 2
M  V30 2 1 2 3
M  V30 3 1 3 4
M  V30 4 1 4 5
M  V30 5 1 5 6
M  V30 6 1 6 7
M  V30 7 1 7 8
M  V30 8 1 8 9
M  V30 9 1 9 10
M  V30 10 1 10 11
M  V30 11 1 11 12
M  V30 12 1 12 13
M  V30 13 1 13 14
M  V30 14 1 14 15
M  V30 15 1 15 16
M  V30 16 1 16 17
M  V30 17 1 17 18
M  V30 18 1 1 19
M  V30 19 1 1 20
M  V30 20 1 2 21
M  V30 21 1 2 22
M  V30 22 1 3 23
M  V30 23 1 3 24
M  V30 24 1 4 25
M  V30 25 1 4 26
M  V30 26 1 5 27
M  V30 27 1 5 28
M  V30 28 1 6 29
M  V30 29 1 6 30
M  V30 30 1 7 31
M  V30 31 1 7 32
M  V30 32 1 8 33
M  V30 33 1 8 34
M  V30 34 1 9 35
M  V30 35 1 9 36
M  V30 36 1 10 37
M  V30 37 1 10 38
M  V30 38 1 11 39
M  V30 39 1 11 40
M  V30 40 1 12 41
M  V30 41 1 12 42
M  V30 42 1 13 43
M  V30 43 1 13 44
M  V30 44 1 14 45
M  V30 45 1 15 46
M  V30 46 1 15 47
M  V30 47 1 16 48
M  V30 48 1 16 49
M  V30 49 1 17 50
M  V30 50 1 17 51
M  V30 51 1 18 52
M  V30 52 1 18 53
M  V30 END BOND
M  V30 END CTAB
M  END
