
     RDKit          3D

  0  0  0  0  0  0  0  0  0  0999 V3000
M  V30 BEGIN CTAB
M  V30 COUNTS 24 23 0 0 0
M  V30 BEGIN ATOM
M  V30 1 N 2.98274 0.638128 -0.0796213 0
M  V30 2 C 2.43039 -0.675292 -0.243826 0
M  V30 3 C 1.0022 -0.756586 0.317898 0
M  V30 4 C 0.194647 0.229639 -0.434353 0
M  V30 5 C -1.2424 0.357594 -0.0940677 0
M  V30 6 N -1.77682 1.40017 -0.996347 0
M  V30 7 C -1.55507 0.831699 1.28316 0
M  V30 8 F -1.10046 0.0675977 2.3074 0
M  V30 9 F -1.1943 2.16995 1.42014 0
M  V30 10 C -2.02453 -0.874455 -0.424466 0
M  V30 11 O -1.7563 -2.04499 0.261645 0
M  V30 12 O -2.92429 -0.910798 -1.30111 0
M  V30 13 H 2.47357 1.17365 0.657103 0
M  V30 14 H 4.01652 0.644522 0.0411522 0
M  V30 15 H 3.08044 -1.44811 0.196308 0
M  V30 16 H 2.41259 -0.884386 -1.3529 0
M  V30 17 H 1.13353 -0.4641 1.39389 0
M  V30 18 H 0.695669 -1.7974 0.225617 0
M  V30 19 H 0.261963 -0.0368352 -1.52446 0
M  V30 20 H 0.690304 1.22326 -0.35228 0
M  V30 21 H -1.69501 0.990827 -1.96006 0
M  V30 22 H -1.04624 2.16695 -0.968603 0
M  V30 23 H -2.68296 0.838767 1.36458 0
M  V30 24 H -2.37617 -2.83982 0.263202 0
M  V30 END ATOM
M  V30 BEGIN BOND
M  V30 1 1 1 2
M  V30 2 1 2 3
M  V30 3 1 3 4
M  V30 4 1 4 5
M  V30 5 1 5 6
M  V30 6 1 5 7
M  V30 7 1 7 8
M  V30 8 1 7 9
M  V30 9 1 5 10
M  V30 10 1 10 11
M  V30 11 2 10 12
M  V30 12 1 1 13
M  V30 13 1 1 14
M  V30 14 1 2 15
M  V30 15 1 2 16
M  V30 16 1 3 17
M  V30 17 1 3 18
M  V30 18 1 4 19
M  V30 19 1 4 20
M  V30 20 1 6 21
M  V30 21 1 6 22
M  V30 22 1 7 23
M  V30 23 1 11 24
M  V30 END BOND
M  V30 END CTAB
M  END
