
     RDKit          3D

  0  0  0  0  0  0  0  0  0  0999 V3000
M  V30 BEGIN CTAB
M  V30 COUNTS 49 51 0 0 0
M  V30 BEGIN ATOM
M  V30 1 O -0.556792 -0.0416832 2.03447 0
M  V30 2 C -0.307198 0.0970788 0.782789 0
M  V30 3 C -1.35775 0.704995 -0.102556 0
M  V30 4 C -2.3447 1.3743 0.788548 0
M  V30 5 C -3.78057 1.23814 0.424154 0
M  V30 6 C -4.45143 0.119528 1.15961 0
M  V30 7 C -4.86086 -1.04607 0.36271 0
M  V30 8 C -4.21884 -1.26502 -0.947342 0
M  V30 9 C -3.30533 -0.201569 -1.44607 0
M  V30 10 C -1.92088 -0.414391 -0.921396 0
M  V30 11 C -3.88211 1.14003 -1.06599 0
M  V30 12 N -5.2611 1.17724 -1.52467 0
M  V30 13 N 0.947121 -0.337175 0.32801 0
M  V30 14 C 1.89605 -0.913273 1.23935 0
M  V30 15 C 3.23518 -1.09133 0.650157 0
M  V30 16 C 3.79443 -2.29151 0.28136 0
M  V30 17 C 5.07354 -2.35714 -0.267426 0
M  V30 18 C 5.83117 -1.22526 -0.464159 0
M  V30 19 C 5.27846 -0.00157062 -0.0954252 0
M  V30 20 C 4.01608 0.038615 0.443256 0
M  V30 21 S 6.2312 1.43547 -0.329673 0
M  V30 22 O 7.14885 1.2312 -1.52108 0
M  V30 23 O 5.32411 2.59776 -0.633731 0
M  V30 24 N 7.12447 1.79649 1.08799 0
M  V30 25 H -0.838459 1.42229 -0.771385 0
M  V30 26 H -2.24732 1.07803 1.86672 0
M  V30 27 H -2.06955 2.47409 0.787469 0
M  V30 28 H -4.29284 2.19613 0.70835 0
M  V30 29 H -3.7434 -0.182083 1.98975 0
M  V30 30 H -5.35181 0.494507 1.71849 0
M  V30 31 H -5.97843 -1.06146 0.220943 0
M  V30 32 H -4.68371 -1.97203 0.991023 0
M  V30 33 H -3.63507 -2.22753 -0.979958 0
M  V30 34 H -4.99518 -1.42664 -1.75487 0
M  V30 35 H -3.31019 -0.209331 -2.57643 0
M  V30 36 H -1.2212 -0.58514 -1.77527 0
M  V30 37 H -1.87106 -1.36466 -0.318368 0
M  V30 38 H -3.31605 1.95632 -1.50454 0
M  V30 39 H -5.91934 1.21109 -0.714401 0
M  V30 40 H -5.40443 2.02448 -2.13623 0
M  V30 41 H 1.19678 -0.240999 -0.673384 0
M  V30 42 H 2.00916 -0.197527 2.10854 0
M  V30 43 H 1.52175 -1.85802 1.6988 0
M  V30 44 H 3.20578 -3.19105 0.431731 0
M  V30 45 H 5.46137 -3.32674 -0.534227 0
M  V30 46 H 6.81547 -1.2913 -0.891221 0
M  V30 47 H 3.59776 0.98945 0.723543 0
M  V30 48 H 7.80673 2.54262 0.863024 0
M  V30 49 H 7.61011 0.980673 1.47579 0
M  V30 END ATOM
M  V30 BEGIN BOND
M  V30 1 2 1 2
M  V30 2 1 2 3
M  V30 3 1 3 4
M  V30 4 1 4 5
M  V30 5 1 5 6
M  V30 6 1 6 7
M  V30 7 1 7 8
M  V30 8 1 8 9
M  V30 9 1 9 10
M  V30 10 1 9 11
M  V30 11 1 11 12
M  V30 12 1 2 13
M  V30 13 1 13 14
M  V30 14 1 14 15
M  V30 15 2 15 16
M  V30 16 1 16 17
M  V30 17 2 17 18
M  V30 18 1 18 19
M  V30 19 2 19 20
M  V30 20 1 19 21
M  V30 21 2 21 22
M  V30 22 2 21 23
M  V30 23 1 21 24
M  V30 24 1 10 3
M  V30 25 1 20 15
M  V30 26 1 11 5
M  V30 27 1 3 25
M  V30 28 1 4 26
M  V30 29 1 4 27
M  V30 30 1 5 28
M  V30 31 1 6 29
M  V30 32 1 6 30
M  V30 33 1 7 31
M  V30 34 1 7 32
M  V30 35 1 8 33
M  V30 36 1 8 34
M  V30 37 1 9 35
M  V30 38 1 10 36
M  V30 39 1 10 37
M  V30 40 1 11 38
M  V30 41 1 12 39
M  V30 42 1 12 40
M  V30 43 1 13 41
M  V30 44 1 14 42
M  V30 45 1 14 43
M  V30 46 1 16 44
M  V30 47 1 17 45
M  V30 48 1 18 46
M  V30 49 1 20 47
M  V30 50 1 24 48
M  V30 51 1 24 49
M  V30 END BOND
M  V30 END CTAB
M  END
