
     RDKit          3D

  0  0  0  0  0  0  0  0  0  0999 V3000
M  V30 BEGIN CTAB
M  V30 COUNTS 35 37 0 0 0
M  V30 BEGIN ATOM
M  V30 1 N 5.2711 0.916118 -0.565793 0
M  V30 2 C 4.05641 0.188695 -0.550179 0
M  V30 3 C 3.83699 -1.15326 -0.514584 0
M  V30 4 C 2.47995 -1.34981 -0.513835 0
M  V30 5 N 1.89088 -0.154985 -0.548167 0
M  V30 6 N 2.84168 0.753152 -0.569552 0
M  V30 7 C 0.471058 0.0750548 -0.559174 0 CFG=1
M  V30 8 C -0.224809 -0.896794 -1.48443 0
M  V30 9 C -1.70347 -0.778788 -1.47389 0
M  V30 10 N -2.21913 -0.0303338 -0.341412 0
M  V30 11 C -1.50077 -0.0451432 0.869616 0
M  V30 12 C -0.109663 0.00734003 0.809036 0
M  V30 13 C 0.616912 -0.0061399 1.96181 0
M  V30 14 C -0.0531089 -0.0723563 3.17785 0
M  V30 15 C -1.43247 -0.12556 3.2661 0
M  V30 16 C -2.16892 -0.112327 2.10243 0
M  V30 17 S -3.68954 0.837979 -0.459899 0
M  V30 18 O -4.84365 -0.023344 -0.875521 0
M  V30 19 O -3.99994 1.58802 0.802571 0
M  V30 20 N -3.46608 2.03785 -1.71749 0
M  V30 21 H 5.58384 1.44657 0.26823 0
M  V30 22 H 5.84606 0.909759 -1.42959 0
M  V30 23 H 4.61779 -1.91341 -0.491376 0
M  V30 24 H 1.96427 -2.28877 -0.490156 0
M  V30 25 H 0.265289 1.09635 -0.94291 0
M  V30 26 H 0.179648 -0.751781 -2.50643 0
M  V30 27 H 0.0644372 -1.93745 -1.19352 0
M  V30 28 H -2.05861 -0.232793 -2.38753 0
M  V30 29 H -2.20501 -1.77247 -1.50762 0
M  V30 30 H 1.68329 0.0344629 1.90389 0
M  V30 31 H 0.510919 -0.0838166 4.10677 0
M  V30 32 H -1.94014 -0.176749 4.21768 0
M  V30 33 H -3.25574 -0.159198 2.06962 0
M  V30 34 H -2.97594 1.62929 -2.51939 0
M  V30 35 H -4.33352 2.54464 -1.91316 0
M  V30 END ATOM
M  V30 BEGIN BOND
M  V30 1 1 1 2
M  V30 2 1 2 3
M  V30 3 2 3 4
M  V30 4 1 4 5
M  V30 5 1 5 6
M  V30 6 1 5 7
M  V30 7 1 7 8
M  V30 8 1 8 9
M  V30 9 1 9 10
M  V30 10 1 10 11
M  V30 11 2 11 12
M  V30 12 1 12 13
M  V30 13 2 13 14
M  V30 14 1 14 15
M  V30 15 2 15 16
M  V30 16 1 10 17
M  V30 17 2 17 18
M  V30 18 2 17 19
M  V30 19 1 17 20
M  V30 20 2 6 2
M  V30 21 1 12 7
M  V30 22 1 16 11
M  V30 23 1 1 21
M  V30 24 1 1 22
M  V30 25 1 3 23
M  V30 26 1 4 24
M  V30 27 1 7 25 CFG=3
M  V30 28 1 8 26
M  V30 29 1 8 27
M  V30 30 1 9 28
M  V30 31 1 9 29
M  V30 32 1 13 30
M  V30 33 1 14 31
M  V30 34 1 15 32
M  V30 35 1 16 33
M  V30 36 1 20 34
M  V30 37 1 20 35
M  V30 END BOND
M  V30 END CTAB
M  END
