
     RDKit          3D

  0  0  0  0  0  0  0  0  0  0999 V3000
M  V30 BEGIN CTAB
M  V30 COUNTS 49 51 0 0 0
M  V30 BEGIN ATOM
M  V30 1 C -6.82612 0.702035 -0.973092 0
M  V30 2 C -5.59417 1.58927 -0.977567 0
M  V30 3 N -4.54272 0.8516 -0.314283 0
M  V30 4 C -3.36824 0.453472 -0.978041 0
M  V30 5 O -3.24833 0.763905 -2.20101 0
M  V30 6 C -2.27909 -0.296682 -0.338078 0
M  V30 7 C -1.07313 -0.474596 -1.02911 0
M  V30 8 C -0.0602642 -1.18068 -0.422935 0
M  V30 9 C -0.199007 -1.71385 0.836552 0
M  V30 10 C -1.36805 -1.54507 1.514 0
M  V30 11 C -2.38877 -0.842518 0.922403 0
M  V30 12 N 0.868901 -2.42971 1.42283 0
M  V30 13 C 0.921179 -3.86925 1.12535 0
M  V30 14 C 1.84426 -1.78763 2.26488 0
M  V30 15 C 2.59294 -0.701575 1.60288 0
M  V30 16 N 3.78136 -0.922088 0.985589 0
M  V30 17 C 4.45726 0.0737537 0.385314 0
M  V30 18 C 5.67068 -0.146516 -0.244797 0
M  V30 19 N 6.24325 -1.46392 -0.272484 0
M  V30 20 N 6.28406 0.888439 -0.817984 0
M  V30 21 C 5.79153 2.14286 -0.821008 0
M  V30 22 N 6.5196 3.19609 -1.46198 0
M  V30 23 N 4.61607 2.34832 -0.208762 0
M  V30 24 C 3.93066 1.35137 0.396366 0
M  V30 25 N 2.75339 1.55513 1.01109 0
M  V30 26 C 2.05404 0.583702 1.61915 0
M  V30 27 C -5.82887 2.8571 -0.261176 0
M  V30 28 O -6.79069 3.73878 -0.704733 0
M  V30 29 O -5.15526 3.13353 0.749723 0
M  V30 30 H -7.4695 0.970961 -1.81693 0
M  V30 31 H -6.51041 -0.364515 -1.01652 0
M  V30 32 H -7.35449 0.891663 -0.0125149 0
M  V30 33 H -5.33174 1.77066 -2.04575 0
M  V30 34 H -4.66985 0.614925 0.686813 0
M  V30 35 H -0.95301 -0.0593038 -2.02155 0
M  V30 36 H 0.893466 -1.33458 -0.941169 0
M  V30 37 H -1.51801 -1.94354 2.49586 0
M  V30 38 H -3.3477 -0.68548 1.43384 0
M  V30 39 H 1.84404 -4.30236 1.54505 0
M  V30 40 H 0.957698 -4.03521 0.0257573 0
M  V30 41 H -0.00660554 -4.35867 1.52451 0
M  V30 42 H 2.56185 -2.58065 2.59862 0
M  V30 43 H 1.36838 -1.41582 3.1881 0
M  V30 44 H 6.02755 -2.13831 -1.0277 0
M  V30 45 H 6.898 -1.74599 0.497298 0
M  V30 46 H 6.76877 4.02201 -0.879838 0
M  V30 47 H 6.80521 3.17911 -2.45497 0
M  V30 48 H 1.10564 0.75568 2.112 0
M  V30 49 H -7.67575 3.90414 -0.270006 0
M  V30 END ATOM
M  V30 BEGIN BOND
M  V30 1 1 1 2
M  V30 2 1 2 3
M  V30 3 1 3 4
M  V30 4 2 4 5
M  V30 5 1 4 6
M  V30 6 2 6 7
M  V30 7 1 7 8
M  V30 8 2 8 9
M  V30 9 1 9 10
M  V30 10 2 10 11
M  V30 11 1 9 12
M  V30 12 1 12 13
M  V30 13 1 12 14
M  V30 14 1 14 15
M  V30 15 2 15 16
M  V30 16 1 16 17
M  V30 17 2 17 18
M  V30 18 1 18 19
M  V30 19 1 18 20
M  V30 20 2 20 21
M  V30 21 1 21 22
M  V30 22 1 21 23
M  V30 23 2 23 24
M  V30 24 1 24 25
M  V30 25 2 25 26
M  V30 26 1 2 27
M  V30 27 1 27 28
M  V30 28 2 27 29
M  V30 29 1 11 6
M  V30 30 1 26 15
M  V30 31 1 24 17
M  V30 32 1 1 30
M  V30 33 1 1 31
M  V30 34 1 1 32
M  V30 35 1 2 33
M  V30 36 1 3 34
M  V30 37 1 7 35
M  V30 38 1 8 36
M  V30 39 1 10 37
M  V30 40 1 11 38
M  V30 41 1 13 39
M  V30 42 1 13 40
M  V30 43 1 13 41
M  V30 44 1 14 42
M  V30 45 1 14 43
M  V30 46 1 19 44
M  V30 47 1 19 45
M  V30 48 1 22 46
M  V30 49 1 22 47
M  V30 50 1 26 48
M  V30 51 1 28 49
M  V30 END BOND
M  V30 END CTAB
M  END
