
     RDKit          3D

  0  0  0  0  0  0  0  0  0  0999 V3000
M  V30 BEGIN CTAB
M  V30 COUNTS 43 46 0 0 0
M  V30 BEGIN ATOM
M  V30 1 F 6.97329 2.70384 -2.3364 0
M  V30 2 C 5.84804 2.15711 -1.80185 0
M  V30 3 C 4.58507 2.51533 -2.19168 0
M  V30 4 C 3.43723 1.9434 -1.63193 0
M  V30 5 C 3.59717 0.989017 -0.656776 0
M  V30 6 C 4.86647 0.623285 -0.259166 0
M  V30 7 C 5.99535 1.18618 -0.810094 0
M  V30 8 N 2.41674 0.399365 -0.0796658 0
M  V30 9 N 1.25811 0.991479 0.135604 0
M  V30 10 C 0.379622 0.150659 0.685592 0
M  V30 11 C 1.02943 -1.07358 0.832389 0
M  V30 12 C 2.30201 -0.880224 0.342955 0
M  V30 13 C 3.07696 -2.16424 0.46532 0
M  V30 14 C 2.02793 -3.19902 0.749061 0
M  V30 15 C 0.834091 -2.46019 1.31422 0
M  V30 16 C -0.998325 0.413861 1.0738 0
M  V30 17 O -1.50518 1.54667 0.905892 0
M  V30 18 O -1.78415 -0.571597 1.63575 0
M  V30 19 C -3.10311 -0.370319 2.0193 0
M  V30 20 C -4.0403 0.0157089 0.971779 0
M  V30 21 N -3.72071 -0.0319015 -0.327826 0
M  V30 22 C -4.64012 0.342391 -1.26133 0
M  V30 23 N -4.35454 0.311499 -2.65201 0
M  V30 24 N -5.87029 0.761447 -0.900896 0
M  V30 25 C -6.18773 0.808349 0.397577 0
M  V30 26 N -5.26887 0.435504 1.30645 0
M  V30 27 N -7.49228 1.25451 0.745083 0
M  V30 28 H 4.46473 3.25401 -2.94636 0
M  V30 29 H 2.48769 2.2803 -1.99384 0
M  V30 30 H 5.00703 -0.127077 0.507855 0
M  V30 31 H 6.99862 0.896104 -0.49481 0
M  V30 32 H 3.54886 -2.42438 -0.512895 0
M  V30 33 H 3.85516 -2.10317 1.234 0
M  V30 34 H 1.69149 -3.74279 -0.144271 0
M  V30 35 H 2.45292 -3.92152 1.47143 0
M  V30 36 H -0.119572 -2.90436 1.03299 0
M  V30 37 H 0.921778 -2.53185 2.42363 0
M  V30 38 H -3.43455 -1.31133 2.54646 0
M  V30 39 H -3.08936 0.406771 2.83177 0
M  V30 40 H -3.72536 -0.426436 -3.05975 0
M  V30 41 H -4.74439 1.00168 -3.32306 0
M  V30 42 H -8.30092 0.59915 0.806163 0
M  V30 43 H -7.67605 2.25635 0.949525 0
M  V30 END ATOM
M  V30 BEGIN BOND
M  V30 1 1 1 2
M  V30 2 2 2 3
M  V30 3 1 3 4
M  V30 4 2 4 5
M  V30 5 1 5 6
M  V30 6 2 6 7
M  V30 7 1 5 8
M  V30 8 1 8 9
M  V30 9 2 9 10
M  V30 10 1 10 11
M  V30 11 2 11 12
M  V30 12 1 12 13
M  V30 13 1 13 14
M  V30 14 1 14 15
M  V30 15 1 10 16
M  V30 16 2 16 17
M  V30 17 1 16 18
M  V30 18 1 18 19
M  V30 19 1 19 20
M  V30 20 2 20 21
M  V30 21 1 21 22
M  V30 22 1 22 23
M  V30 23 2 22 24
M  V30 24 1 24 25
M  V30 25 2 25 26
M  V30 26 1 25 27
M  V30 27 1 7 2
M  V30 28 1 12 8
M  V30 29 1 26 20
M  V30 30 1 15 11
M  V30 31 1 3 28
M  V30 32 1 4 29
M  V30 33 1 6 30
M  V30 34 1 7 31
M  V30 35 1 13 32
M  V30 36 1 13 33
M  V30 37 1 14 34
M  V30 38 1 14 35
M  V30 39 1 15 36
M  V30 40 1 15 37
M  V30 41 1 19 38
M  V30 42 1 19 39
M  V30 43 1 23 40
M  V30 44 1 23 41
M  V30 45 1 27 42
M  V30 46 1 27 43
M  V30 END BOND
M  V30 END CTAB
M  END
