
     RDKit          3D

  0  0  0  0  0  0  0  0  0  0999 V3000
M  V30 BEGIN CTAB
M  V30 COUNTS 40 43 0 0 0
M  V30 BEGIN ATOM
M  V30 1 N 5.25649 -0.34713 -0.415024 0
M  V30 2 C 3.85348 -0.312389 -0.388602 0
M  V30 3 C 3.12412 -1.14254 -1.19152 0
M  V30 4 C 1.73195 -1.05946 -1.13521 0
M  V30 5 C 1.07925 -0.185634 -0.310176 0
M  V30 6 C 1.88009 0.640088 0.489094 0
M  V30 7 C 3.2518 0.603717 0.475789 0
M  V30 8 N 4.06483 1.44365 1.27856 0
M  V30 9 C -0.383232 -0.0725156 -0.229137 0
M  V30 10 C -0.840309 -0.560535 1.13438 0
M  V30 11 C -2.32258 -0.538412 1.25578 0
M  V30 12 C -2.76803 0.907087 1.13836 0
M  V30 13 C -2.3444 1.42304 -0.208732 0
M  V30 14 C -0.850595 1.36408 -0.38672 0
M  V30 15 C -3.0525 0.541592 -1.23873 0
M  V30 16 C -2.57458 -0.853181 -1.14157 0
M  V30 17 C -1.05962 -0.885784 -1.28661 0
M  V30 18 C -2.96831 -1.41157 0.221244 0
M  V30 19 H 5.78281 0.212998 -1.10522 0
M  V30 20 H 5.78857 -0.933577 0.260363 0
M  V30 21 H 3.56814 -1.86913 -1.85908 0
M  V30 22 H 1.13617 -1.7162 -1.7859 0
M  V30 23 H 1.37776 1.34053 1.14121 0
M  V30 24 H 3.59716 2.06179 1.98906 0
M  V30 25 H 5.09632 1.49806 1.21694 0
M  V30 26 H -0.369237 0.050122 1.9204 0
M  V30 27 H -0.487134 -1.61323 1.22155 0
M  V30 28 H -2.58502 -0.903747 2.29216 0
M  V30 29 H -3.82982 1.0496 1.23104 0
M  V30 30 H -2.28472 1.4772 1.97108 0
M  V30 31 H -2.72845 2.4526 -0.300364 0
M  V30 32 H -0.60387 1.76313 -1.36328 0
M  V30 33 H -0.418272 2.00779 0.412707 0
M  V30 34 H -2.91825 0.898398 -2.26819 0
M  V30 35 H -4.13015 0.570911 -0.924571 0
M  V30 36 H -2.99408 -1.5291 -1.89198 0
M  V30 37 H -0.743569 -1.94895 -1.17426 0
M  V30 38 H -0.783236 -0.552666 -2.28296 0
M  V30 39 H -2.50134 -2.4307 0.363336 0
M  V30 40 H -4.04766 -1.43995 0.263506 0
M  V30 END ATOM
M  V30 BEGIN BOND
M  V30 1 1 1 2
M  V30 2 2 2 3
M  V30 3 1 3 4
M  V30 4 2 4 5
M  V30 5 1 5 6
M  V30 6 2 6 7
M  V30 7 1 7 8
M  V30 8 1 5 9
M  V30 9 1 9 10
M  V30 10 1 10 11
M  V30 11 1 11 12
M  V30 12 1 12 13
M  V30 13 1 13 14
M  V30 14 1 13 15
M  V30 15 1 15 16
M  V30 16 1 16 17
M  V30 17 1 16 18
M  V30 18 1 7 2
M  V30 19 1 17 9
M  V30 20 1 14 9
M  V30 21 1 18 11
M  V30 22 1 1 19
M  V30 23 1 1 20
M  V30 24 1 3 21
M  V30 25 1 4 22
M  V30 26 1 6 23
M  V30 27 1 8 24
M  V30 28 1 8 25
M  V30 29 1 10 26
M  V30 30 1 10 27
M  V30 31 1 11 28
M  V30 32 1 12 29
M  V30 33 1 12 30
M  V30 34 1 13 31
M  V30 35 1 14 32
M  V30 36 1 14 33
M  V30 37 1 15 34
M  V30 38 1 15 35
M  V30 39 1 16 36
M  V30 40 1 17 37
M  V30 41 1 17 38
M  V30 42 1 18 39
M  V30 43 1 18 40
M  V30 END BOND
M  V30 END CTAB
M  END
