
     RDKit          3D

  0  0  0  0  0  0  0  0  0  0999 V3000
M  V30 BEGIN CTAB
M  V30 COUNTS 33 34 0 0 0
M  V30 BEGIN ATOM
M  V30 1 N -2.94791 2.23945 -0.813743 0
M  V30 2 C -3.43195 0.987794 -0.281586 0
M  V30 3 C -2.36789 0.373319 0.598208 0
M  V30 4 N -1.13886 0.110046 -0.118575 0
M  V30 5 C -1.38872 -0.950734 -1.06264 0
M  V30 6 C -0.793774 -2.21997 -0.489278 0
M  V30 7 C -0.480326 -1.85344 0.950958 0
M  V30 8 C -0.181047 -0.405301 0.855606 0 CFG=1
M  V30 9 C 1.18979 -0.0153637 0.550361 0
M  V30 10 C 2.28406 -0.836248 0.59974 0
M  V30 11 C 3.57126 -0.367754 0.284647 0
M  V30 12 C 3.77932 0.939824 -0.0868092 0
M  V30 13 N 2.69585 1.73637 -0.131445 0
M  V30 14 C 1.46141 1.30825 0.165313 0
M  V30 15 N 5.08047 1.43528 -0.412344 0
M  V30 16 H -2.6265 2.14369 -1.78609 0
M  V30 17 H -3.60863 3.03184 -0.658333 0
M  V30 18 H -4.27259 1.26883 0.419571 0
M  V30 19 H -3.85727 0.305428 -1.01365 0
M  V30 20 H -2.21707 0.969465 1.52115 0
M  V30 21 H -2.73292 -0.627782 0.974654 0
M  V30 22 H -2.46407 -1.15771 -1.23646 0
M  V30 23 H -0.960934 -0.724103 -2.07145 0
M  V30 24 H 0.0959401 -2.57478 -1.03869 0
M  V30 25 H -1.5188 -3.05933 -0.464996 0
M  V30 26 H 0.369883 -2.41959 1.3115 0
M  V30 27 H -1.39382 -2.02726 1.57888 0
M  V30 28 H -0.445826 0.0525593 1.85579 0
M  V30 29 H 2.16916 -1.86518 0.884817 0
M  V30 30 H 4.42597 -1.04255 0.33178 0
M  V30 31 H 0.592511 1.98428 0.119313 0
M  V30 32 H 5.18894 1.96284 -1.29115 0
M  V30 33 H 5.92433 1.29785 0.180633 0
M  V30 END ATOM
M  V30 BEGIN BOND
M  V30 1 1 1 2
M  V30 2 1 2 3
M  V30 3 1 3 4
M  V30 4 1 4 5
M  V30 5 1 5 6
M  V30 6 1 6 7
M  V30 7 1 7 8
M  V30 8 1 8 9
M  V30 9 2 9 10
M  V30 10 1 10 11
M  V30 11 2 11 12
M  V30 12 1 12 13
M  V30 13 2 13 14
M  V30 14 1 12 15
M  V30 15 1 8 4
M  V30 16 1 14 9
M  V30 17 1 1 16
M  V30 18 1 1 17
M  V30 19 1 2 18
M  V30 20 1 2 19
M  V30 21 1 3 20
M  V30 22 1 3 21
M  V30 23 1 5 22
M  V30 24 1 5 23
M  V30 25 1 6 24
M  V30 26 1 6 25
M  V30 27 1 7 26
M  V30 28 1 7 27
M  V30 29 1 8 28 CFG=1
M  V30 30 1 10 29
M  V30 31 1 11 30
M  V30 32 1 14 31
M  V30 33 1 15 32
M  V30 34 1 15 33
M  V30 END BOND
M  V30 END CTAB
M  END
