
     RDKit          3D

  0  0  0  0  0  0  0  0  0  0999 V3000
M  V30 BEGIN CTAB
M  V30 COUNTS 28 28 0 0 0
M  V30 BEGIN ATOM
M  V30 1 N 2.83179 -0.871353 0.482154 0
M  V30 2 C 1.97394 0.282022 0.271906 0
M  V30 3 C 0.620968 -0.126393 -0.265333 0
M  V30 4 N 0.892893 -0.809414 -1.54394 0
M  V30 5 C 0.0872624 -1.17734 0.664265 0
M  V30 6 C -1.33499 -1.54561 0.421942 0
M  V30 7 C -2.21697 -0.290654 0.432557 0
M  V30 8 C -1.7118 0.592271 -0.661864 0
M  V30 9 C -0.284346 1.00043 -0.548524 0
M  V30 10 C -0.18239 2.16904 0.391503 0
M  V30 11 F -0.4507 1.85434 1.69642 0
M  V30 12 F 1.00382 2.87759 0.237255 0
M  V30 13 F -1.17832 3.08575 0.0114391 0
M  V30 14 H 2.74059 -1.22398 1.46355 0
M  V30 15 H 2.63173 -1.61006 -0.232575 0
M  V30 16 H 1.9121 0.797391 1.24943 0
M  V30 17 H 2.52498 0.961642 -0.410112 0
M  V30 18 H 1.81245 -0.549893 -1.9171 0
M  V30 19 H 0.147101 -0.582309 -2.24237 0
M  V30 20 H 0.704801 -2.10203 0.489732 0
M  V30 21 H 0.269039 -0.921392 1.74102 0
M  V30 22 H -1.44574 -2.01431 -0.565753 0
M  V30 23 H -1.64665 -2.27217 1.17958 0
M  V30 24 H -2.25392 0.167708 1.426 0
M  V30 25 H -3.23325 -0.633238 0.141186 0
M  V30 26 H -1.86439 0.0329837 -1.62486 0
M  V30 27 H -2.34826 1.50865 -0.716585 0
M  V30 28 H -0.00174587 1.40032 -1.57094 0
M  V30 END ATOM
M  V30 BEGIN BOND
M  V30 1 1 1 2
M  V30 2 1 2 3
M  V30 3 1 3 4
M  V30 4 1 3 5
M  V30 5 1 5 6
M  V30 6 1 6 7
M  V30 7 1 7 8
M  V30 8 1 8 9
M  V30 9 1 9 10
M  V30 10 1 10 11
M  V30 11 1 10 12
M  V30 12 1 10 13
M  V30 13 1 9 3
M  V30 14 1 1 14
M  V30 15 1 1 15
M  V30 16 1 2 16
M  V30 17 1 2 17
M  V30 18 1 4 18
M  V30 19 1 4 19
M  V30 20 1 5 20
M  V30 21 1 5 21
M  V30 22 1 6 22
M  V30 23 1 6 23
M  V30 24 1 7 24
M  V30 25 1 7 25
M  V30 26 1 8 26
M  V30 27 1 8 27
M  V30 28 1 9 28
M  V30 END BOND
M  V30 END CTAB
M  END
