
     RDKit          3D

  0  0  0  0  0  0  0  0  0  0999 V3000
M  V30 BEGIN CTAB
M  V30 COUNTS 26 26 0 0 0
M  V30 BEGIN ATOM
M  V30 1 C -1.77329 2.18708 -0.328719 0
M  V30 2 O -1.07037 1.4065 0.644744 0
M  V30 3 C -0.734322 0.0929893 0.365164 0
M  V30 4 C -1.62884 -0.919812 0.674838 0
M  V30 5 N -2.88093 -0.607131 1.27222 0
M  V30 6 C -1.26669 -2.22347 0.385092 0
M  V30 7 C -0.0473327 -2.52277 -0.199233 0
M  V30 8 C 0.845223 -1.51579 -0.50893 0
M  V30 9 C 0.478167 -0.204152 -0.215258 0
M  V30 10 C 1.44722 0.851073 -0.546736 0
M  V30 11 C 2.10388 1.28296 0.701739 0
M  V30 12 O 1.80319 0.763731 1.79302 0
M  V30 13 O 3.06389 2.27348 0.673655 0
M  V30 14 N 2.1061 -1.76872 -1.10865 0
M  V30 15 H -1.74486 3.24368 0.0402854 0
M  V30 16 H -2.84078 1.84102 -0.407935 0
M  V30 17 H -1.34965 2.15599 -1.32429 0
M  V30 18 H -2.8751 -0.192687 2.22508 0
M  V30 19 H -3.78018 -0.783067 0.780754 0
M  V30 20 H -1.94661 -3.04674 0.614272 0
M  V30 21 H 0.249121 -3.54684 -0.431618 0
M  V30 22 H 2.22625 0.501281 -1.26298 0
M  V30 23 H 0.976674 1.78408 -0.967568 0
M  V30 24 H 3.41277 2.69975 -0.186058 0
M  V30 25 H 2.83637 -2.38054 -0.651774 0
M  V30 26 H 2.3901 -1.37189 -2.03111 0
M  V30 END ATOM
M  V30 BEGIN BOND
M  V30 1 1 1 2
M  V30 2 1 2 3
M  V30 3 2 3 4
M  V30 4 1 4 5
M  V30 5 1 4 6
M  V30 6 2 6 7
M  V30 7 1 7 8
M  V30 8 2 8 9
M  V30 9 1 9 10
M  V30 10 1 10 11
M  V30 11 2 11 12
M  V30 12 1 11 13
M  V30 13 1 8 14
M  V30 14 1 9 3
M  V30 15 1 1 15
M  V30 16 1 1 16
M  V30 17 1 1 17
M  V30 18 1 5 18
M  V30 19 1 5 19
M  V30 20 1 6 20
M  V30 21 1 7 21
M  V30 22 1 10 22
M  V30 23 1 10 23
M  V30 24 1 13 24
M  V30 25 1 14 25
M  V30 26 1 14 26
M  V30 END BOND
M  V30 END CTAB
M  END
