
     RDKit          3D

  0  0  0  0  0  0  0  0  0  0999 V3000
M  V30 BEGIN CTAB
M  V30 COUNTS 32 33 0 0 0
M  V30 BEGIN ATOM
M  V30 1 N 1.64336 2.70205 -0.61973 0
M  V30 2 N 1.03809 1.46693 -0.35031 0
M  V30 3 C 1.5809 0.297634 -0.00010887 0
M  V30 4 N 0.607663 -0.630739 0.158214 0
M  V30 5 C -0.5769 -0.047895 -0.0942688 0
M  V30 6 C -0.283976 1.25935 -0.409074 0
M  V30 7 N -1.25943 2.23028 -0.744733 0
M  V30 8 C -1.89936 -0.665608 -0.0463149 0
M  V30 9 C -2.63598 -0.620173 -1.35875 0
M  V30 10 C -1.73767 -2.12159 0.335173 0
M  V30 11 C -2.74089 -0.0245773 1.04739 0
M  V30 12 C 3.04107 0.074866 0.182261 0
M  V30 13 C 3.54139 -1.30869 -0.0240429 0
M  V30 14 C 3.44589 -0.792731 1.3616 0
M  V30 15 H 1.57973 3.43698 0.124505 0
M  V30 16 H 2.14146 2.92327 -1.49973 0
M  V30 17 H -1.67752 2.33993 -1.69128 0
M  V30 18 H -1.58218 2.87839 0.000268176 0
M  V30 19 H -3.05521 0.364762 -1.58699 0
M  V30 20 H -1.98987 -1.04564 -2.1356 0
M  V30 21 H -3.51838 -1.31414 -1.24227 0
M  V30 22 H -2.65576 -2.52744 0.817096 0
M  V30 23 H -0.956853 -2.13361 1.15133 0
M  V30 24 H -1.38362 -2.74585 -0.496773 0
M  V30 25 H -2.8441 1.05606 0.936477 0
M  V30 26 H -2.21228 -0.232011 2.0047 0
M  V30 27 H -3.72684 -0.539299 1.11818 0
M  V30 28 H 3.71555 0.925428 0.0184892 0
M  V30 29 H 2.84332 -2.10012 -0.298517 0
M  V30 30 H 4.53096 -1.37494 -0.522921 0
M  V30 31 H 4.41045 -0.584195 1.86833 0
M  V30 32 H 2.61699 -1.14668 1.99741 0
M  V30 END ATOM
M  V30 BEGIN BOND
M  V30 1 1 1 2
M  V30 2 1 2 3
M  V30 3 2 3 4
M  V30 4 1 4 5
M  V30 5 2 5 6
M  V30 6 1 6 7
M  V30 7 1 5 8
M  V30 8 1 8 9
M  V30 9 1 8 10
M  V30 10 1 8 11
M  V30 11 1 3 12
M  V30 12 1 12 13
M  V30 13 1 13 14
M  V30 14 1 6 2
M  V30 15 1 14 12
M  V30 16 1 1 15
M  V30 17 1 1 16
M  V30 18 1 7 17
M  V30 19 1 7 18
M  V30 20 1 9 19
M  V30 21 1 9 20
M  V30 22 1 9 21
M  V30 23 1 10 22
M  V30 24 1 10 23
M  V30 25 1 10 24
M  V30 26 1 11 25
M  V30 27 1 11 26
M  V30 28 1 11 27
M  V30 29 1 12 28
M  V30 30 1 13 29
M  V30 31 1 13 30
M  V30 32 1 14 31
M  V30 33 1 14 32
M  V30 END BOND
M  V30 END CTAB
M  END
