
     RDKit          3D

  0  0  0  0  0  0  0  0  0  0999 V3000
M  V30 BEGIN CTAB
M  V30 COUNTS 17 16 0 0 0
M  V30 BEGIN ATOM
M  V30 1 C -1.98701 0.403494 -0.476794 0
M  V30 2 C -0.72389 -0.224252 0.100771 0
M  V30 3 C 0.360908 0.0407601 -0.935987 0
M  V30 4 C 1.66474 -0.500409 -0.543337 0
M  V30 5 S 2.39664 -1.61613 -1.48405 0
M  V30 6 N 2.28267 -0.0472466 0.657517 0
M  V30 7 N -0.392615 0.294796 1.39445 0
M  V30 8 H -2.85825 0.226768 0.156841 0
M  V30 9 H -2.08813 -0.0434056 -1.50584 0
M  V30 10 H -1.79192 1.49383 -0.670942 0
M  V30 11 H -0.907258 -1.33085 0.163014 0
M  V30 12 H 0.37728 1.1332 -1.10934 0
M  V30 13 H 0.014753 -0.420552 -1.88015 0
M  V30 14 H 2.23515 -0.652213 1.50819 0
M  V30 15 H 2.78677 0.874462 0.723916 0
M  V30 16 H -1.16327 0.86206 1.81667 0
M  V30 17 H -0.206569 -0.494317 2.08507 0
M  V30 END ATOM
M  V30 BEGIN BOND
M  V30 1 1 1 2
M  V30 2 1 2 3
M  V30 3 1 3 4
M  V30 4 2 4 5
M  V30 5 1 4 6
M  V30 6 1 2 7
M  V30 7 1 1 8
M  V30 8 1 1 9
M  V30 9 1 1 10
M  V30 10 1 2 11
M  V30 11 1 3 12
M  V30 12 1 3 13
M  V30 13 1 6 14
M  V30 14 1 6 15
M  V30 15 1 7 16
M  V30 16 1 7 17
M  V30 END BOND
M  V30 END CTAB
M  END
