
     RDKit          3D

  0  0  0  0  0  0  0  0  0  0999 V3000
M  V30 BEGIN CTAB
M  V30 COUNTS 23 23 0 0 0
M  V30 BEGIN ATOM
M  V30 1 C -3.6133 0.708282 0.339732 0
M  V30 2 O -2.63319 0.00462112 1.03341 0
M  V30 3 C -1.29563 -0.0291957 0.760198 0
M  V30 4 C -0.781245 -0.988298 -0.0948571 0
M  V30 5 N -1.62708 -1.96739 -0.715239 0
M  V30 6 C 0.570154 -1.03989 -0.384709 0
M  V30 7 C 1.42916 -0.133554 0.175519 0
M  V30 8 C 0.889872 0.814653 1.02652 0
M  V30 9 C -0.445529 0.871236 1.31738 0
M  V30 10 F -0.851592 1.8523 2.16988 0
M  V30 11 S 3.14822 -0.141051 -0.147112 0
M  V30 12 O 3.8354 0.38459 1.0869 0
M  V30 13 O 3.6437 -1.51433 -0.495004 0
M  V30 14 N 3.42098 0.866835 -1.51651 0
M  V30 15 H -3.96564 1.62854 0.840756 0
M  V30 16 H -3.35271 0.94929 -0.701829 0
M  V30 17 H -4.52146 0.0391697 0.281356 0
M  V30 18 H -2.50281 -1.62746 -1.175 0
M  V30 19 H -1.41407 -2.97987 -0.728802 0
M  V30 20 H 0.971446 -1.79233 -1.05509 0
M  V30 21 H 1.58139 1.52925 1.4656 0
M  V30 22 H 3.19387 1.86204 -1.33559 0
M  V30 23 H 4.32007 0.702566 -1.98343 0
M  V30 END ATOM
M  V30 BEGIN BOND
M  V30 1 1 1 2
M  V30 2 1 2 3
M  V30 3 2 3 4
M  V30 4 1 4 5
M  V30 5 1 4 6
M  V30 6 2 6 7
M  V30 7 1 7 8
M  V30 8 2 8 9
M  V30 9 1 9 10
M  V30 10 1 7 11
M  V30 11 2 11 12
M  V30 12 2 11 13
M  V30 13 1 11 14
M  V30 14 1 9 3
M  V30 15 1 1 15
M  V30 16 1 1 16
M  V30 17 1 1 17
M  V30 18 1 5 18
M  V30 19 1 5 19
M  V30 20 1 6 20
M  V30 21 1 8 21
M  V30 22 1 14 22
M  V30 23 1 14 23
M  V30 END BOND
M  V30 END CTAB
M  END
