
     RDKit          3D

  0  0  0  0  0  0  0  0  0  0999 V3000
M  V30 BEGIN CTAB
M  V30 COUNTS 25 26 0 0 0
M  V30 BEGIN ATOM
M  V30 1 N -4.56128 -0.382826 0.0348839 0
M  V30 2 C -3.12743 -0.585079 -0.0622094 0
M  V30 3 C -2.3814 0.661517 0.349976 0
M  V30 4 C -0.924379 0.526492 0.210293 0
M  V30 5 N -0.0493529 1.3951 0.747302 0
M  V30 6 C 1.18913 0.971056 0.42636 0
M  V30 7 C 1.07393 -0.179345 -0.321698 0
M  V30 8 N -0.234056 -0.419706 -0.432685 0
M  V30 9 N 2.12896 -0.858576 -0.802991 0
M  V30 10 C 3.37792 -0.428981 -0.566186 0
M  V30 11 C 3.52712 0.721656 0.18083 0
M  V30 12 C 2.46579 1.43816 0.686712 0
M  V30 13 N 4.51595 -1.13835 -1.07011 0
M  V30 14 O -2.71001 0.969636 1.6689 0
M  V30 15 H -5.01489 -1.10932 -0.562499 0
M  V30 16 H -4.806 -0.493153 1.04454 0
M  V30 17 H -2.87773 -1.44869 0.582304 0
M  V30 18 H -2.90607 -0.874396 -1.10989 0
M  V30 19 H -2.75524 1.50307 -0.271724 0
M  V30 20 H -0.643954 -1.22998 -0.947976 0
M  V30 21 H 4.53465 1.0699 0.372962 0
M  V30 22 H 2.57637 2.33915 1.27187 0
M  V30 23 H 5.39553 -0.642916 -1.2204 0
M  V30 24 H 4.41326 -2.15237 -1.2717 0
M  V30 25 H -2.20683 0.347983 2.26195 0
M  V30 END ATOM
M  V30 BEGIN BOND
M  V30 1 1 1 2
M  V30 2 1 2 3
M  V30 3 1 3 4
M  V30 4 2 4 5
M  V30 5 1 5 6
M  V30 6 2 6 7
M  V30 7 1 7 8
M  V30 8 1 7 9
M  V30 9 2 9 10
M  V30 10 1 10 11
M  V30 11 2 11 12
M  V30 12 1 10 13
M  V30 13 1 3 14
M  V30 14 1 8 4
M  V30 15 1 12 6
M  V30 16 1 1 15
M  V30 17 1 1 16
M  V30 18 1 2 17
M  V30 19 1 2 18
M  V30 20 1 3 19
M  V30 21 1 8 20
M  V30 22 1 11 21
M  V30 23 1 12 22
M  V30 24 1 13 23
M  V30 25 1 13 24
M  V30 26 1 14 25
M  V30 END BOND
M  V30 END CTAB
M  END
