
     RDKit          3D

  0  0  0  0  0  0  0  0  0  0999 V3000
M  V30 BEGIN CTAB
M  V30 COUNTS 25 24 0 0 0
M  V30 BEGIN ATOM
M  V30 1 C -1.75264 1.37495 -0.0778937 0
M  V30 2 C -1.51239 -0.0977344 0.0936511 0
M  V30 3 C -0.507788 -0.424942 1.14528 0
M  V30 4 N 0.78712 0.142945 0.905536 0
M  V30 5 C 1.64224 -0.121207 -0.171 0
M  V30 6 N 1.72012 0.720529 -1.13311 0
M  V30 7 N 2.53147 0.570368 -2.25483 0
M  V30 8 N 2.41794 -1.30047 -0.195352 0
M  V30 9 C -0.993375 -0.00800752 2.47288 0
M  V30 10 C -1.3789 0.347721 3.56267 0
M  V30 11 C -1.27091 -0.736111 -1.24576 0
M  V30 12 H -0.901686 2.00699 0.190363 0
M  V30 13 H -2.61042 1.70617 0.571058 0
M  V30 14 H -2.0153 1.60958 -1.13235 0
M  V30 15 H -2.49111 -0.545097 0.475341 0
M  V30 16 H -0.405158 -1.55314 1.22308 0
M  V30 17 H 1.12721 0.848125 1.63922 0
M  V30 18 H 2.13766 0.807593 -3.17923 0
M  V30 19 H 3.50183 0.224008 -2.1061 0
M  V30 20 H 3.40427 -1.34723 0.103109 0
M  V30 21 H 1.98948 -2.20999 -0.535859 0
M  V30 22 H -1.70867 0.666459 4.5317 0
M  V30 23 H -2.20393 -1.26308 -1.62089 0
M  V30 24 H -0.430789 -1.44092 -1.2072 0
M  V30 25 H -1.07626 0.022483 -2.05431 0
M  V30 END ATOM
M  V30 BEGIN BOND
M  V30 1 1 1 2
M  V30 2 1 2 3
M  V30 3 1 3 4
M  V30 4 1 4 5
M  V30 5 2 5 6 CFG=2
M  V30 6 1 6 7
M  V30 7 1 5 8
M  V30 8 1 3 9
M  V30 9 3 9 10
M  V30 10 1 2 11
M  V30 11 1 1 12
M  V30 12 1 1 13
M  V30 13 1 1 14
M  V30 14 1 2 15
M  V30 15 1 3 16
M  V30 16 1 4 17
M  V30 17 1 7 18
M  V30 18 1 7 19
M  V30 19 1 8 20
M  V30 20 1 8 21
M  V30 21 1 10 22
M  V30 22 1 11 23
M  V30 23 1 11 24
M  V30 24 1 11 25
M  V30 END BOND
M  V30 END CTAB
M  END
