
     RDKit          3D

  0  0  0  0  0  0  0  0  0  0999 V3000
M  V30 BEGIN CTAB
M  V30 COUNTS 39 40 0 0 0
M  V30 BEGIN ATOM
M  V30 1 C 5.91911 0.869304 -0.282673 0
M  V30 2 O 4.67829 1.43534 0.0840924 0
M  V30 3 C 3.58278 0.657139 0.473135 0
M  V30 4 O 3.707 -0.578333 0.49717 0
M  V30 5 C 2.33331 1.31902 0.836601 0
M  V30 6 C 1.18128 0.372015 1.04392 0
M  V30 7 C 0.854064 -0.329232 -0.225072 0
M  V30 8 C -0.274393 -1.28746 -0.146825 0
M  V30 9 C -1.57132 -0.916306 -0.232981 0
M  V30 10 C -2.62005 -1.85773 -0.15098 0
M  V30 11 N -3.9663 -1.41861 -0.248382 0
M  V30 12 N -2.26034 -3.12996 0.0158303 0
M  V30 13 C -1.00042 -3.53799 0.105271 0
M  V30 14 N -0.714302 -4.91288 0.282793 0
M  V30 15 N -0.020564 -2.62832 0.0249379 0
M  V30 16 C -1.98394 0.464099 -0.41649 0
M  V30 17 C -2.5364 1.20603 0.607836 0
M  V30 18 C -2.93618 2.50874 0.463573 0
M  V30 19 C -2.79371 3.14393 -0.755269 0
M  V30 20 Cl -3.29315 4.81246 -0.980947 0
M  V30 21 C -2.23779 2.40762 -1.79782 0
M  V30 22 C -1.83698 1.09557 -1.64682 0
M  V30 23 H 6.26486 0.113161 0.46165 0
M  V30 24 H 5.86852 0.424931 -1.31154 0
M  V30 25 H 6.67165 1.68546 -0.309731 0
M  V30 26 H 2.4817 1.84721 1.82327 0
M  V30 27 H 2.04467 2.08179 0.06673 0
M  V30 28 H 0.343251 0.98876 1.40962 0
M  V30 29 H 1.46725 -0.378036 1.8329 0
M  V30 30 H 0.672719 0.420493 -1.05532 0
M  V30 31 H 1.71677 -0.912987 -0.601925 0
M  V30 32 H -4.68467 -1.5927 0.484403 0
M  V30 33 H -4.27439 -0.887041 -1.09872 0
M  V30 34 H -0.0208155 -5.34943 -0.364622 0
M  V30 35 H -1.17315 -5.48558 1.03221 0
M  V30 36 H -2.66858 0.746041 1.58902 0
M  V30 37 H -3.36789 3.08373 1.26971 0
M  V30 38 H -2.13695 2.9261 -2.73799 0
M  V30 39 H -1.41496 0.593652 -2.50346 0
M  V30 END ATOM
M  V30 BEGIN BOND
M  V30 1 1 1 2
M  V30 2 1 2 3
M  V30 3 2 3 4
M  V30 4 1 3 5
M  V30 5 1 5 6
M  V30 6 1 6 7
M  V30 7 1 7 8
M  V30 8 2 8 9
M  V30 9 1 9 10
M  V30 10 1 10 11
M  V30 11 2 10 12
M  V30 12 1 12 13
M  V30 13 1 13 14
M  V30 14 2 13 15
M  V30 15 1 9 16
M  V30 16 2 16 17
M  V30 17 1 17 18
M  V30 18 2 18 19
M  V30 19 1 19 20
M  V30 20 1 19 21
M  V30 21 2 21 22
M  V30 22 1 15 8
M  V30 23 1 22 16
M  V30 24 1 1 23
M  V30 25 1 1 24
M  V30 26 1 1 25
M  V30 27 1 5 26
M  V30 28 1 5 27
M  V30 29 1 6 28
M  V30 30 1 6 29
M  V30 31 1 7 30
M  V30 32 1 7 31
M  V30 33 1 11 32
M  V30 34 1 11 33
M  V30 35 1 14 34
M  V30 36 1 14 35
M  V30 37 1 17 36
M  V30 38 1 18 37
M  V30 39 1 21 38
M  V30 40 1 22 39
M  V30 END BOND
M  V30 END CTAB
M  END
