
     RDKit          3D

  0  0  0  0  0  0  0  0  0  0999 V3000
M  V30 BEGIN CTAB
M  V30 COUNTS 87 90 0 0 0
M  V30 BEGIN ATOM
M  V30 1 N -1.64887 5.16536 3.88991 0
M  V30 2 C -1.79085 5.73559 2.62466 0
M  V30 3 N -1.53858 7.00345 2.50981 0
M  V30 4 N -2.18184 5.02082 1.47149 0
M  V30 5 C -1.26454 4.09428 0.760995 0
M  V30 6 C -2.00747 3.5421 -0.404779 0
M  V30 7 C -1.38416 2.64433 -1.36187 0
M  V30 8 C -0.802734 1.32256 -1.0664 0
M  V30 9 C -1.61054 0.287242 -0.458877 0
M  V30 10 O -1.05308 -0.445678 0.455855 0
M  V30 11 N -2.9601 -0.0369578 -0.75988 0
M  V30 12 C -3.60922 -1.15 -0.07808 0
M  V30 13 C -3.45886 -2.39314 -0.930727 0
M  V30 14 O -3.50081 -2.23837 -2.16641 0
M  V30 15 O -3.28317 -3.59556 -0.300873 0
M  V30 16 C -5.0226 -0.880899 0.209858 0
M  V30 17 C -5.77074 -1.95885 0.88584 0
M  V30 18 C -5.81372 -2.11147 2.25315 0
M  V30 19 N -6.48401 -3.22351 2.56379 0
M  V30 20 C -6.88431 -3.81667 1.39713 0
M  V30 21 C -6.44113 -3.01895 0.350002 0
M  V30 22 C -6.72606 -3.38313 -0.953696 0
M  V30 23 C -7.42997 -4.51056 -1.23238 0
M  V30 24 C -7.87051 -5.30425 -0.194202 0
M  V30 25 C -7.58945 -4.94551 1.11421 0
M  V30 26 N 0.535436 1.22225 -0.759069 0
M  V30 27 C 1.87674 1.1222 -0.450678 0
M  V30 28 O 2.55827 1.86366 0.251833 0
M  V30 29 C 2.58907 -0.0717298 -1.06429 0
M  V30 30 N 3.95078 -0.109541 -0.600617 0
M  V30 31 C 4.68675 -1.30646 -0.354338 0
M  V30 32 O 4.08149 -2.39557 -0.553387 0
M  V30 33 C 6.07718 -1.27907 0.0813352 0
M  V30 34 C 6.31745 -1.05504 1.54008 0
M  V30 35 C 5.79785 -2.10052 2.43714 0
M  V30 36 N 5.05494 -3.20707 2.20047 0
M  V30 37 C 4.8822 -3.8485 3.36174 0
M  V30 38 N 5.48879 -3.19349 4.33732 0
M  V30 39 C 6.0658 -2.09589 3.80555 0
M  V30 40 N 6.75921 -2.55538 -0.294799 0
M  V30 41 C 2.60114 0.0794168 -2.59459 0
M  V30 42 C 3.37601 1.26471 -3.04612 0
M  V30 43 C 2.85456 2.49796 -3.21161 0
M  V30 44 C 3.64482 3.58591 -3.61143 0
M  V30 45 C 4.99669 3.33501 -3.82797 0
M  V30 46 C 5.5283 2.05867 -3.65231 0
M  V30 47 C 4.71288 1.03979 -3.26237 0
M  V30 48 H -1.30377 4.19955 4.04375 0
M  V30 49 H -1.88911 5.71429 4.77457 0
M  V30 50 H -1.60612 7.5243 1.6143 0
M  V30 51 H -3.15214 5.0978 1.0568 0
M  V30 52 H -0.388917 4.69612 0.507585 0
M  V30 53 H -1.05904 3.26755 1.49387 0
M  V30 54 H -3.01817 3.2273 -0.0361874 0
M  V30 55 H -2.29163 4.48352 -1.02199 0
M  V30 56 H -0.536107 3.24249 -1.8623 0
M  V30 57 H -2.1138 2.58646 -2.24959 0
M  V30 58 H -0.831014 0.906963 -2.26071 0
M  V30 59 H -3.44541 0.527178 -1.46764 0
M  V30 60 H -3.05041 -1.34131 0.882157 0
M  V30 61 H -2.49608 -4.18685 -0.425279 0
M  V30 62 H -5.62761 -0.632957 -0.722165 0
M  V30 63 H -5.19823 0.0384068 0.824271 0
M  V30 64 H -5.37932 -1.41954 2.97097 0
M  V30 65 H -6.68875 -3.6095 3.47968 0
M  V30 66 H -6.40737 -2.78231 -1.79126 0
M  V30 67 H -7.68122 -4.85756 -2.25289 0
M  V30 68 H -8.41691 -6.22364 -0.386671 0
M  V30 69 H -7.92938 -5.57952 1.95551 0
M  V30 70 H 0.396683 2.27669 0.0917782 0
M  V30 71 H 2.06027 -0.995701 -0.85389 0
M  V30 72 H 4.42983 0.795123 -0.428949 0
M  V30 73 H 6.60213 -0.516023 -0.490008 0
M  V30 74 H 7.42251 -1.00595 1.69731 0
M  V30 75 H 5.92407 -0.0463162 1.85115 0
M  V30 76 H 4.32689 -4.78908 3.56573 0
M  V30 77 H 5.56343 -3.42525 5.38757 0
M  V30 78 H 6.62822 -1.35638 4.34797 0
M  V30 79 H 6.2017 -2.96258 -1.11562 0
M  V30 80 H 7.6992 -2.28072 -0.719537 0
M  V30 81 H 1.54174 0.252913 -2.87962 0
M  V30 82 H 2.92973 -0.864377 -3.01869 0
M  V30 83 H 1.8005 2.73755 -3.05165 0
M  V30 84 H 3.2269 4.56518 -3.75719 0
M  V30 85 H 5.68144 4.13863 -4.13954 0
M  V30 86 H 6.61958 1.89464 -3.81195 0
M  V30 87 H 5.14667 0.0493998 -3.11203 0
M  V30 END ATOM
M  V30 BEGIN BOND
M  V30 1 1 1 2
M  V30 2 2 2 3 CFG=2
M  V30 3 1 2 4
M  V30 4 1 4 5
M  V30 5 1 5 6
M  V30 6 1 6 7
M  V30 7 1 7 8
M  V30 8 1 8 9
M  V30 9 2 9 10
M  V30 10 1 9 11
M  V30 11 1 11 12
M  V30 12 1 12 13
M  V30 13 2 13 14
M  V30 14 1 13 15
M  V30 15 1 12 16
M  V30 16 1 16 17
M  V30 17 2 17 18
M  V30 18 1 18 19
M  V30 19 1 19 20
M  V30 20 2 20 21
M  V30 21 1 21 22
M  V30 22 2 22 23
M  V30 23 1 23 24
M  V30 24 2 24 25
M  V30 25 1 8 26
M  V30 26 1 26 27
M  V30 27 2 27 28
M  V30 28 1 27 29
M  V30 29 1 29 30
M  V30 30 1 30 31
M  V30 31 2 31 32
M  V30 32 1 31 33
M  V30 33 1 33 34
M  V30 34 1 34 35
M  V30 35 1 35 36
M  V30 36 2 36 37
M  V30 37 1 37 38
M  V30 38 1 38 39
M  V30 39 1 33 40
M  V30 40 1 29 41
M  V30 41 1 41 42
M  V30 42 2 42 43
M  V30 43 1 43 44
M  V30 44 2 44 45
M  V30 45 1 45 46
M  V30 46 2 46 47
M  V30 47 1 21 17
M  V30 48 2 39 35
M  V30 49 1 47 42
M  V30 50 1 25 20
M  V30 51 1 1 48
M  V30 52 1 1 49
M  V30 53 1 3 50
M  V30 54 1 4 51
M  V30 55 1 5 52
M  V30 56 1 5 53
M  V30 57 1 6 54
M  V30 58 1 6 55
M  V30 59 1 7 56
M  V30 60 1 7 57
M  V30 61 1 8 58
M  V30 62 1 11 59
M  V30 63 1 12 60
M  V30 64 1 15 61
M  V30 65 1 16 62
M  V30 66 1 16 63
M  V30 67 1 18 64
M  V30 68 1 19 65
M  V30 69 1 22 66
M  V30 70 1 23 67
M  V30 71 1 24 68
M  V30 72 1 25 69
M  V30 73 1 26 70
M  V30 74 1 29 71
M  V30 75 1 30 72
M  V30 76 1 33 73
M  V30 77 1 34 74
M  V30 78 1 34 75
M  V30 79 1 37 76
M  V30 80 1 38 77
M  V30 81 1 39 78
M  V30 82 1 40 79
M  V30 83 1 40 80
M  V30 84 1 41 81
M  V30 85 1 41 82
M  V30 86 1 43 83
M  V30 87 1 44 84
M  V30 88 1 45 85
M  V30 89 1 46 86
M  V30 90 1 47 87
M  V30 END BOND
M  V30 END CTAB
M  END
