
     RDKit          3D

  0  0  0  0  0  0  0  0  0  0999 V3000
M  V30 BEGIN CTAB
M  V30 COUNTS 36 37 0 0 0
M  V30 BEGIN ATOM
M  V30 1 C 7.23345 0.176163 0.278563 0
M  V30 2 O 6.17582 1.07307 0.336801 0
M  V30 3 C 4.85032 0.787133 0.206948 0
M  V30 4 C 4.46299 -0.508198 -0.00510506 0
M  V30 5 C 3.1224 -0.884476 -0.148935 0
M  V30 6 C 2.14082 0.0648821 -0.0782545 0
M  V30 7 C 2.5654 1.38436 0.139795 0
M  V30 8 C 3.87685 1.75188 0.280404 0
M  V30 9 Cl 4.28163 3.45265 0.551929 0
M  V30 10 N 0.762432 -0.224708 -0.213255 0
M  V30 11 C 0.138775 -1.43916 -0.440623 0
M  V30 12 O 0.69785 -2.52826 -0.571179 0
M  V30 13 C -1.37774 -1.48875 -0.547728 0
M  V30 14 O -1.8761 -0.206038 -0.383816 0
M  V30 15 N -3.13138 0.191984 -0.40995 0
M  V30 16 C -4.16674 -0.526747 -0.511792 0
M  V30 17 C -5.52379 0.0486734 -0.528899 0
M  V30 18 N -6.66811 -0.612936 -0.631286 0
M  V30 19 O -7.63303 0.272159 -0.606932 0
M  V30 20 N -7.16923 1.46751 -0.494316 0
M  V30 21 C -5.81024 1.38252 -0.439529 0
M  V30 22 N -4.89138 2.45739 -0.315688 0
M  V30 23 N -4.04871 -1.93474 -0.614441 0
M  V30 24 H 8.20517 0.610507 0.0524433 0
M  V30 25 H 7.23958 -0.412721 1.23737 0
M  V30 26 H 7.01583 -0.551859 -0.552591 0
M  V30 27 H 5.19286 -1.32731 -0.0737683 0
M  V30 28 H 2.88974 -1.9293 -0.314319 0
M  V30 29 H 1.79793 2.14295 0.197322 0
M  V30 30 H 0.0997672 0.62885 -0.125573 0
M  V30 31 H -1.67776 -2.16701 0.298636 0
M  V30 32 H -1.65314 -1.93461 -1.52788 0
M  V30 33 H -4.66839 2.79287 0.646574 0
M  V30 34 H -4.44181 2.91313 -1.13094 0
M  V30 35 H -3.99433 -2.34923 -1.56659 0
M  V30 36 H -4.01775 -2.57263 0.206334 0
M  V30 END ATOM
M  V30 BEGIN BOND
M  V30 1 1 1 2
M  V30 2 1 2 3
M  V30 3 2 3 4
M  V30 4 1 4 5
M  V30 5 2 5 6
M  V30 6 1 6 7
M  V30 7 2 7 8
M  V30 8 1 8 9
M  V30 9 1 6 10
M  V30 10 1 10 11
M  V30 11 2 11 12
M  V30 12 1 11 13
M  V30 13 1 13 14
M  V30 14 1 14 15
M  V30 15 2 15 16
M  V30 16 1 16 17
M  V30 17 2 17 18
M  V30 18 1 18 19
M  V30 19 1 19 20
M  V30 20 2 20 21
M  V30 21 1 21 22
M  V30 22 1 16 23
M  V30 23 1 8 3
M  V30 24 1 21 17
M  V30 25 1 1 24
M  V30 26 1 1 25
M  V30 27 1 1 26
M  V30 28 1 4 27
M  V30 29 1 5 28
M  V30 30 1 7 29
M  V30 31 1 10 30
M  V30 32 1 13 31
M  V30 33 1 13 32
M  V30 34 1 22 33
M  V30 35 1 22 34
M  V30 36 1 23 35
M  V30 37 1 23 36
M  V30 END BOND
M  V30 END CTAB
M  END
