
     RDKit          3D

  0  0  0  0  0  0  0  0  0  0999 V3000
M  V30 BEGIN CTAB
M  V30 COUNTS 34 36 0 0 0
M  V30 BEGIN ATOM
M  V30 1 N 3.15117 2.47309 -0.802816 0
M  V30 2 C 3.35479 1.07027 -0.716103 0
M  V30 3 C 4.62165 0.650799 -0.35077 0
M  V30 4 C 4.83357 -0.709895 -0.264135 0
M  V30 5 N 6.09654 -1.23339 0.101323 0
M  V30 6 N 3.82961 -1.58161 -0.529698 0
M  V30 7 C 2.59685 -1.16541 -0.885345 0
M  V30 8 N 2.40063 0.167572 -0.967076 0
M  V30 9 S 1.29875 -2.34399 -1.22936 0
M  V30 10 C 0.35522 -2.77615 0.242909 0
M  V30 11 C -0.382575 -1.51966 0.673191 0
M  V30 12 C 0.208172 -0.653713 1.55999 0
M  V30 13 S -0.992502 0.554641 1.70658 0
M  V30 14 C -2.1568 -0.109138 0.643624 0
M  V30 15 N -1.56138 -1.21781 0.236502 0
M  V30 16 C -3.48919 0.413277 0.268651 0
M  V30 17 C -4.31234 -0.239937 -0.608004 0
M  V30 18 C -5.54934 0.284374 -0.930643 0
M  V30 19 C -5.96801 1.47411 -0.371082 0
M  V30 20 C -5.14244 2.13162 0.509577 0
M  V30 21 C -3.89144 1.5973 0.833105 0
M  V30 22 H 3.27661 2.94601 -1.71564 0
M  V30 23 H 2.88375 3.02019 0.0184414 0
M  V30 24 H 5.42435 1.34338 -0.138441 0
M  V30 25 H 6.39769 -2.13617 -0.308085 0
M  V30 26 H 6.73007 -0.751274 0.759391 0
M  V30 27 H -0.364191 -3.56698 -0.0372844 0
M  V30 28 H 1.01001 -3.12638 1.04257 0
M  V30 29 H 1.20238 -0.749079 2.03293 0
M  V30 30 H -4.01332 -1.1699 -1.06155 0
M  V30 31 H -6.20557 -0.221435 -1.61981 0
M  V30 32 H -6.9141 1.9183 -0.589547 0
M  V30 33 H -5.43194 3.06269 0.967872 0
M  V30 34 H -3.29668 2.16429 1.52873 0
M  V30 END ATOM
M  V30 BEGIN BOND
M  V30 1 1 1 2
M  V30 2 2 2 3
M  V30 3 1 3 4
M  V30 4 1 4 5
M  V30 5 2 4 6
M  V30 6 1 6 7
M  V30 7 2 7 8
M  V30 8 1 7 9
M  V30 9 1 9 10
M  V30 10 1 10 11
M  V30 11 2 11 12
M  V30 12 1 12 13
M  V30 13 1 13 14
M  V30 14 2 14 15
M  V30 15 1 14 16
M  V30 16 2 16 17
M  V30 17 1 17 18
M  V30 18 2 18 19
M  V30 19 1 19 20
M  V30 20 2 20 21
M  V30 21 1 8 2
M  V30 22 1 15 11
M  V30 23 1 21 16
M  V30 24 1 1 22
M  V30 25 1 1 23
M  V30 26 1 3 24
M  V30 27 1 5 25
M  V30 28 1 5 26
M  V30 29 1 10 27
M  V30 30 1 10 28
M  V30 31 1 12 29
M  V30 32 1 17 30
M  V30 33 1 18 31
M  V30 34 1 19 32
M  V30 35 1 20 33
M  V30 36 1 21 34
M  V30 END BOND
M  V30 END CTAB
M  END
