
     RDKit          3D

  0  0  0  0  0  0  0  0  0  0999 V3000
M  V30 BEGIN CTAB
M  V30 COUNTS 65 69 0 0 0
M  V30 BEGIN ATOM
M  V30 1 C -3.29009 -1.55268 0.743017 0
M  V30 2 C -2.64564 -0.510546 -0.11917 0 CFG=2
M  V30 3 C -1.79448 -1.25613 -1.12511 0
M  V30 4 C -0.640235 -2.00227 -0.489857 0
M  V30 5 C 0.190511 -1.14481 0.418707 0
M  V30 6 C -0.260655 0.251084 0.293018 0
M  V30 7 C 0.48292 1.23765 1.14023 0
M  V30 8 C 1.72323 0.713953 1.76756 0
M  V30 9 C 2.40651 -0.180576 0.814073 0
M  V30 10 C 3.64497 0.106857 0.445053 0
M  V30 11 C 4.32665 -0.772743 -0.482816 0
M  V30 12 C 3.57083 -1.7602 -1.27261 0
M  V30 13 C 2.09801 -1.76751 -1.07869 0
M  V30 14 C 1.66135 -1.34518 0.314209 0 CFG=2
M  V30 15 C 2.10343 -2.4998 1.21727 0
M  V30 16 N 5.62644 -0.752042 -0.627328 0
M  V30 17 N 6.35202 0.127011 0.147825 0
M  V30 18 C 7.04485 1.29554 -0.169012 0
M  V30 19 N 6.72986 2.55123 0.460561 0
M  V30 20 N 8.00014 1.25278 -1.03683 0
M  V30 21 C -1.71636 0.362919 0.694328 0
M  V30 22 C -2.14446 1.80675 0.3163 0
M  V30 23 C -2.79422 1.64063 -1.0176 0
M  V30 24 C -3.56308 0.34789 -0.903324 0 CFG=1
M  V30 25 O -3.73221 -0.161697 -2.1927 0
M  V30 26 C -4.91036 0.609091 -0.263037 0
M  V30 27 C -5.84552 -0.39766 -0.234063 0
M  V30 28 S -7.13608 0.349276 0.58913 0
M  V30 29 C -6.41993 1.89376 0.854762 0
M  V30 30 N -6.97893 3.02591 1.541 0
M  V30 31 N -5.24195 1.74055 0.29276 0
M  V30 32 H -3.96399 -1.15623 1.5045 0
M  V30 33 H -3.73332 -2.32282 0.0782456 0
M  V30 34 H -2.47521 -2.08878 1.28748 0
M  V30 35 H -1.51769 -0.601539 -1.9545 0
M  V30 36 H -2.46485 -2.04488 -1.5729 0
M  V30 37 H -1.0848 -2.89228 0.0626838 0
M  V30 38 H -0.0886156 -2.45662 -1.35633 0
M  V30 39 H -0.0751601 -1.49667 1.47828 0
M  V30 40 H -0.202077 0.514895 -0.79177 0
M  V30 41 H 0.75303 2.09153 0.482087 0
M  V30 42 H -0.149667 1.65348 1.96037 0
M  V30 43 H 1.51143 0.109411 2.68605 0
M  V30 44 H 2.4276 1.56401 2.01277 0
M  V30 45 H 4.15248 1.00331 0.816548 0
M  V30 46 H 3.76664 -1.44535 -2.35883 0
M  V30 47 H 3.9912 -2.79882 -1.14522 0
M  V30 48 H 1.64201 -1.15897 -1.87553 0
M  V30 49 H 1.79352 -2.86854 -1.17911 0
M  V30 50 H 1.59334 -2.32783 2.18885 0
M  V30 51 H 3.18092 -2.36946 1.47036 0
M  V30 52 H 1.87653 -3.48056 0.81335 0
M  V30 53 H 6.37013 -0.160954 1.18995 0
M  V30 54 H 5.73141 2.85839 0.422876 0
M  V30 55 H 7.49483 3.08638 0.943148 0
M  V30 56 H 8.49429 2.1456 -1.24527 0
M  V30 57 H -1.81381 0.230331 1.77521 0
M  V30 58 H -1.25931 2.44671 0.183234 0
M  V30 59 H -2.77277 2.23602 1.09485 0
M  V30 60 H -3.4869 2.49192 -1.24595 0
M  V30 61 H -2.01319 1.47652 -1.78279 0
M  V30 62 H -4.34908 -0.915623 -2.21533 0
M  V30 63 H -5.79855 -1.41162 -0.638206 0
M  V30 64 H -7.55625 3.68919 0.996502 0
M  V30 65 H -6.82163 3.19086 2.54636 0
M  V30 END ATOM
M  V30 BEGIN BOND
M  V30 1 1 2 1 CFG=1
M  V30 2 1 2 3
M  V30 3 1 3 4
M  V30 4 1 4 5
M  V30 5 1 5 6
M  V30 6 1 6 7
M  V30 7 1 7 8
M  V30 8 1 8 9
M  V30 9 2 9 10
M  V30 10 1 10 11
M  V30 11 1 11 12
M  V30 12 1 12 13
M  V30 13 1 13 14
M  V30 14 1 14 15 CFG=1
M  V30 15 2 11 16 CFG=2
M  V30 16 1 16 17
M  V30 17 1 17 18
M  V30 18 1 18 19
M  V30 19 2 18 20 CFG=2
M  V30 20 1 6 21
M  V30 21 1 21 22
M  V30 22 1 22 23
M  V30 23 1 23 24
M  V30 24 1 24 25 CFG=3
M  V30 25 1 24 26
M  V30 26 2 26 27
M  V30 27 1 27 28
M  V30 28 1 28 29
M  V30 29 1 29 30
M  V30 30 2 29 31
M  V30 31 1 21 2
M  V30 32 1 31 26
M  V30 33 1 24 2
M  V30 34 1 14 5
M  V30 35 1 14 9
M  V30 36 1 1 32
M  V30 37 1 1 33
M  V30 38 1 1 34
M  V30 39 1 3 35
M  V30 40 1 3 36
M  V30 41 1 4 37
M  V30 42 1 4 38
M  V30 43 1 5 39
M  V30 44 1 6 40
M  V30 45 1 7 41
M  V30 46 1 7 42
M  V30 47 1 8 43
M  V30 48 1 8 44
M  V30 49 1 10 45
M  V30 50 1 12 46
M  V30 51 1 12 47
M  V30 52 1 13 48
M  V30 53 1 13 49
M  V30 54 1 15 50
M  V30 55 1 15 51
M  V30 56 1 15 52
M  V30 57 1 17 53
M  V30 58 1 19 54
M  V30 59 1 19 55
M  V30 60 1 20 56
M  V30 61 1 21 57
M  V30 62 1 22 58
M  V30 63 1 22 59
M  V30 64 1 23 60
M  V30 65 1 23 61
M  V30 66 1 25 62
M  V30 67 1 27 63
M  V30 68 1 30 64
M  V30 69 1 30 65
M  V30 END BOND
M  V30 END CTAB
M  END
