
     RDKit          3D

  0  0  0  0  0  0  0  0  0  0999 V3000
M  V30 BEGIN CTAB
M  V30 COUNTS 31 32 0 0 0
M  V30 BEGIN ATOM
M  V30 1 N -2.53184 -1.58955 -1.54032 0
M  V30 2 C -2.50795 -0.713257 -0.396498 0
M  V30 3 C -3.72411 -0.311864 0.106262 0
M  V30 4 C -3.68238 0.596609 1.15224 0
M  V30 5 C -2.52255 1.10147 1.69241 0
M  V30 6 C -1.29968 0.664412 1.14686 0
M  V30 7 C -1.27858 -0.227046 0.116215 0
M  V30 8 C -0.0978715 -0.786806 -0.494162 0 CFG=1
M  V30 9 C 0.493437 0.199057 -1.52242 0
M  V30 10 C 1.98098 0.0925842 -1.39053 0
M  V30 11 N 2.18276 -0.233033 0.0330543 0
M  V30 12 C 1.07245 -0.973728 0.465632 0
M  V30 13 S 2.81711 1.05645 0.871235 0
M  V30 14 O 2.22583 1.52747 2.11993 0
M  V30 15 O 2.87087 2.28165 -0.0906056 0
M  V30 16 N 4.52205 0.713811 1.19383 0
M  V30 17 H -2.49349 -2.60789 -1.49114 0
M  V30 18 H -2.57017 -1.08525 -2.49161 0
M  V30 19 H -4.67981 -0.680264 -0.278858 0
M  V30 20 H -4.61939 0.939363 1.58655 0
M  V30 21 H -2.47707 1.83004 2.52424 0
M  V30 22 H -0.368274 1.00179 1.51158 0
M  V30 23 H -0.306652 -1.71258 -1.03726 0
M  V30 24 H 0.119375 1.20636 -1.45571 0
M  V30 25 H 0.25831 -0.178447 -2.56393 0
M  V30 26 H 2.46349 -0.713624 -1.96665 0
M  V30 27 H 2.49213 1.03447 -1.64631 0
M  V30 28 H 0.873862 -0.78524 1.50565 0
M  V30 29 H 1.34621 -2.04218 0.392453 0
M  V30 30 H 4.91203 0.587112 0.248763 0
M  V30 31 H 4.52895 -0.191888 1.69911 0
M  V30 END ATOM
M  V30 BEGIN BOND
M  V30 1 1 1 2
M  V30 2 2 2 3
M  V30 3 1 3 4
M  V30 4 2 4 5
M  V30 5 1 5 6
M  V30 6 2 6 7
M  V30 7 1 7 8
M  V30 8 1 8 9
M  V30 9 1 9 10
M  V30 10 1 10 11
M  V30 11 1 11 12
M  V30 12 1 11 13
M  V30 13 2 13 14
M  V30 14 2 13 15
M  V30 15 1 13 16
M  V30 16 1 7 2
M  V30 17 1 12 8
M  V30 18 1 1 17
M  V30 19 1 1 18
M  V30 20 1 3 19
M  V30 21 1 4 20
M  V30 22 1 5 21
M  V30 23 1 6 22
M  V30 24 1 8 23 CFG=3
M  V30 25 1 9 24
M  V30 26 1 9 25
M  V30 27 1 10 26
M  V30 28 1 10 27
M  V30 29 1 12 28
M  V30 30 1 12 29
M  V30 31 1 16 30
M  V30 32 1 16 31
M  V30 END BOND
M  V30 END CTAB
M  END
