
     RDKit          3D

  0  0  0  0  0  0  0  0  0  0999 V3000
M  V30 BEGIN CTAB
M  V30 COUNTS 20 20 0 0 0
M  V30 BEGIN ATOM
M  V30 1 N 3.85932 0.0585737 1.64218 0
M  V30 2 C 3.23329 -0.0188848 0.672401 0
M  V30 3 C 2.44945 -0.107126 -0.583611 0
M  V30 4 C 1.00054 -0.0593508 -0.322815 0
M  V30 5 C 0.286543 -1.21416 -0.101985 0
M  V30 6 C -1.09053 -1.14934 0.144383 0
M  V30 7 N -1.78063 -2.3625 0.365432 0
M  V30 8 C -1.71801 0.0571147 0.164445 0
M  V30 9 C -1.01718 1.239 -0.056099 0
M  V30 10 C 0.348141 1.13936 -0.297593 0
M  V30 11 N -1.70687 2.4758 -0.0270464 0
M  V30 12 F -3.04837 0.113989 0.402903 0
M  V30 13 H 2.80089 0.710021 -1.2529 0
M  V30 14 H 2.70482 -1.10648 -1.03997 0
M  V30 15 H 0.782705 -2.1572 -0.118717 0
M  V30 16 H -1.96398 -2.6515 1.34108 0
M  V30 17 H -2.07459 -2.91304 -0.46816 0
M  V30 18 H 0.913512 2.04144 -0.471486 0
M  V30 19 H -1.5427 3.2558 -0.69998 0
M  V30 20 H -2.43634 2.64848 0.707548 0
M  V30 END ATOM
M  V30 BEGIN BOND
M  V30 1 3 1 2
M  V30 2 1 2 3
M  V30 3 1 3 4
M  V30 4 2 4 5
M  V30 5 1 5 6
M  V30 6 1 6 7
M  V30 7 2 6 8
M  V30 8 1 8 9
M  V30 9 2 9 10
M  V30 10 1 9 11
M  V30 11 1 8 12
M  V30 12 1 10 4
M  V30 13 1 3 13
M  V30 14 1 3 14
M  V30 15 1 5 15
M  V30 16 1 7 16
M  V30 17 1 7 17
M  V30 18 1 10 18
M  V30 19 1 11 19
M  V30 20 1 11 20
M  V30 END BOND
M  V30 END CTAB
M  END
