
     RDKit          3D

  0  0  0  0  0  0  0  0  0  0999 V3000
M  V30 BEGIN CTAB
M  V30 COUNTS 39 40 0 0 0
M  V30 BEGIN ATOM
M  V30 1 C -3.80287 -3.42646 -0.721419 0
M  V30 2 C -2.50076 -2.69576 -0.594063 0
M  V30 3 O -2.70856 -1.31608 -0.440499 0
M  V30 4 C -1.63594 -0.443731 -0.304158 0
M  V30 5 C -0.354565 -0.956393 -0.321971 0
M  V30 6 C 0.709453 -0.100427 -0.187812 0
M  V30 7 C 0.564184 1.27073 -0.0331984 0
M  V30 8 C -0.728795 1.7617 -0.0182848 0
M  V30 9 C -1.8095 0.916394 -0.151747 0
M  V30 10 O -3.09966 1.41953 -0.135325 0
M  V30 11 C -3.30762 2.81063 0.0195634 0
M  V30 12 C -4.76558 3.17161 0.0140162 0
M  V30 13 N 1.6323 2.07882 0.0955385 0
M  V30 14 C 2.87377 1.52902 0.0721211 0
M  V30 15 C 3.09348 0.18608 -0.0767874 0
M  V30 16 C 1.97765 -0.641807 -0.209382 0
M  V30 17 N 2.16706 -2.017 -0.36303 0
M  V30 18 C 4.41025 -0.429691 -0.105401 0
M  V30 19 O 4.52617 -1.67466 -0.246293 0
M  V30 20 N 5.58603 0.345417 0.0230125 0
M  V30 21 N 6.85935 -0.280493 -0.00818893 0
M  V30 22 H -4.22166 -3.3932 -1.74372 0
M  V30 23 H -4.55504 -3.10432 0.0335551 0
M  V30 24 H -3.61861 -4.51144 -0.506619 0
M  V30 25 H -1.98149 -3.10617 0.304893 0
M  V30 26 H -1.92379 -2.85382 -1.52415 0
M  V30 27 H -0.155246 -2.01401 -0.438389 0
M  V30 28 H -0.838237 2.82514 0.101736 0
M  V30 29 H -2.81744 3.10052 0.983459 0
M  V30 30 H -2.82106 3.30086 -0.847917 0
M  V30 31 H -5.32574 2.30027 -0.406351 0
M  V30 32 H -4.93175 4.05805 -0.602257 0
M  V30 33 H -5.08432 3.32425 1.06305 0
M  V30 34 H 3.76415 2.16254 0.174778 0
M  V30 35 H 2.16468 -2.44184 -1.30497 0
M  V30 36 H 2.31149 -2.62446 0.461545 0
M  V30 37 H 5.61539 1.37529 0.143643 0
M  V30 38 H 7.26265 -0.0636108 -0.95139 0
M  V30 39 H 7.4702 0.158522 0.688602 0
M  V30 END ATOM
M  V30 BEGIN BOND
M  V30 1 1 1 2
M  V30 2 1 2 3
M  V30 3 1 3 4
M  V30 4 2 4 5
M  V30 5 1 5 6
M  V30 6 2 6 7
M  V30 7 1 7 8
M  V30 8 2 8 9
M  V30 9 1 9 10
M  V30 10 1 10 11
M  V30 11 1 11 12
M  V30 12 1 7 13
M  V30 13 2 13 14
M  V30 14 1 14 15
M  V30 15 2 15 16
M  V30 16 1 16 17
M  V30 17 1 15 18
M  V30 18 2 18 19
M  V30 19 1 18 20
M  V30 20 1 20 21
M  V30 21 1 9 4
M  V30 22 1 16 6
M  V30 23 1 1 22
M  V30 24 1 1 23
M  V30 25 1 1 24
M  V30 26 1 2 25
M  V30 27 1 2 26
M  V30 28 1 5 27
M  V30 29 1 8 28
M  V30 30 1 11 29
M  V30 31 1 11 30
M  V30 32 1 12 31
M  V30 33 1 12 32
M  V30 34 1 12 33
M  V30 35 1 14 34
M  V30 36 1 17 35
M  V30 37 1 17 36
M  V30 38 1 20 37
M  V30 39 1 21 38
M  V30 40 1 21 39
M  V30 END BOND
M  V30 END CTAB
M  END
