
     RDKit          3D

  0  0  0  0  0  0  0  0  0  0999 V3000
M  V30 BEGIN CTAB
M  V30 COUNTS 23 24 0 0 0
M  V30 BEGIN ATOM
M  V30 1 N -3.15374 -2.20782 -0.462795 0
M  V30 2 C -2.4866 -0.983889 -0.169845 0
M  V30 3 N -3.20243 0.0983724 0.150187 0
M  V30 4 C -2.62095 1.2905 0.438701 0
M  V30 5 N -3.40414 2.41855 0.773994 0
M  V30 6 N -1.26745 1.33818 0.388089 0
M  V30 7 C -0.493711 0.288458 0.0739663 0
M  V30 8 C -1.13379 -0.913487 -0.214409 0
M  V30 9 C 0.959173 0.361475 0.0253961 0
M  V30 10 N 1.68556 1.45628 0.281343 0
M  V30 11 C 3.00437 1.17247 0.144556 0
M  V30 12 N 3.06349 -0.129744 -0.203012 0
M  V30 13 N 1.82328 -0.618959 -0.274594 0
M  V30 14 C 4.2901 -0.84888 -0.450743 0
M  V30 15 H -2.67252 -2.972 -0.987135 0
M  V30 16 H -4.13778 -2.39172 -0.170695 0
M  V30 17 H -3.65218 3.10735 0.0485976 0
M  V30 18 H -3.72163 2.54219 1.7468 0
M  V30 19 H -0.559192 -1.78538 -0.472137 0
M  V30 20 H 3.86318 1.81327 0.274088 0
M  V30 21 H 4.92096 -0.282553 -1.16148 0
M  V30 22 H 4.04479 -1.87232 -0.807901 0
M  V30 23 H 4.8512 -0.880329 0.514076 0
M  V30 END ATOM
M  V30 BEGIN BOND
M  V30 1 1 1 2
M  V30 2 2 2 3
M  V30 3 1 3 4
M  V30 4 1 4 5
M  V30 5 2 4 6
M  V30 6 1 6 7
M  V30 7 2 7 8
M  V30 8 1 7 9
M  V30 9 1 9 10
M  V30 10 2 10 11
M  V30 11 1 11 12
M  V30 12 1 12 13
M  V30 13 1 12 14
M  V30 14 1 8 2
M  V30 15 2 13 9
M  V30 16 1 1 15
M  V30 17 1 1 16
M  V30 18 1 5 17
M  V30 19 1 5 18
M  V30 20 1 8 19
M  V30 21 1 11 20
M  V30 22 1 14 21
M  V30 23 1 14 22
M  V30 24 1 14 23
M  V30 END BOND
M  V30 END CTAB
M  END
