
     RDKit          3D

  0  0  0  0  0  0  0  0  0  0999 V3000
M  V30 BEGIN CTAB
M  V30 COUNTS 27 29 0 0 0
M  V30 BEGIN ATOM
M  V30 1 N 2.93495 2.18851 0.538203 0
M  V30 2 C 2.51215 0.850821 0.271092 0
M  V30 3 C 1.20126 0.618251 -0.115012 0
M  V30 4 C 0.843177 -0.69026 -0.361055 0
M  V30 5 N 1.76084 -1.66324 -0.219022 0
M  V30 6 C 3.03185 -1.43881 0.155214 0
M  V30 7 N 3.3819 -0.16299 0.395362 0
M  V30 8 N 3.93801 -2.53257 0.280437 0
M  V30 9 N -0.496423 -0.942528 -0.757274 0
M  V30 10 C -1.45934 0.104111 -0.903468 0
M  V30 11 C -2.86133 -0.380743 -1.34311 0
M  V30 12 C -2.63237 0.289486 -0.115331 0
M  V30 13 C -2.98587 0.0710948 1.2295 0
M  V30 14 C -3.21097 1.42825 0.511842 0
M  V30 15 H 3.71963 2.41143 1.19377 0
M  V30 16 H 2.44708 2.98725 0.0643083 0
M  V30 17 H 0.505826 1.45002 -0.211993 0
M  V30 18 H 4.27795 -2.85846 1.21387 0
M  V30 19 H 4.28306 -3.03434 -0.56733 0
M  V30 20 H -0.741597 -1.96193 -0.939643 0
M  V30 21 H -1.07016 0.985806 -1.49365 0
M  V30 22 H -3.02157 -1.48308 -1.36864 0
M  V30 23 H -3.30887 0.125195 -2.22328 0
M  V30 24 H -2.30977 0.133703 2.12105 0
M  V30 25 H -3.94523 -0.455581 1.49566 0
M  V30 26 H -4.26569 1.70156 0.299533 0
M  V30 27 H -2.52849 2.25903 0.848973 0
M  V30 END ATOM
M  V30 BEGIN BOND
M  V30 1 1 1 2
M  V30 2 2 2 3
M  V30 3 1 3 4
M  V30 4 2 4 5
M  V30 5 1 5 6
M  V30 6 2 6 7
M  V30 7 1 6 8
M  V30 8 1 4 9
M  V30 9 1 9 10
M  V30 10 1 10 11
M  V30 11 1 11 12
M  V30 12 1 12 13
M  V30 13 1 13 14
M  V30 14 1 7 2
M  V30 15 1 12 10
M  V30 16 1 14 12
M  V30 17 1 1 15
M  V30 18 1 1 16
M  V30 19 1 3 17
M  V30 20 1 8 18
M  V30 21 1 8 19
M  V30 22 1 9 20
M  V30 23 1 10 21
M  V30 24 1 11 22
M  V30 25 1 11 23
M  V30 26 1 13 24
M  V30 27 1 13 25
M  V30 28 1 14 26
M  V30 29 1 14 27
M  V30 END BOND
M  V30 END CTAB
M  END
