
     RDKit          3D

  0  0  0  0  0  0  0  0  0  0999 V3000
M  V30 BEGIN CTAB
M  V30 COUNTS 85 87 0 0 0
M  V30 BEGIN ATOM
M  V30 1 C 0.251342 -1.43142 0.405975 0 CFG=1
M  V30 2 C 0.182815 -2.20968 -0.92822 0
M  V30 3 C 0.0541375 -1.25282 -2.08258 0
M  V30 4 C -0.0269831 -2.04879 -3.3624 0
M  V30 5 N -0.146959 -1.21483 -4.52421 0
M  V30 6 C 0.901827 -0.358691 -5.00824 0
M  V30 7 N 2.2159 -0.789323 -5.25984 0
M  V30 8 N 0.594001 0.871178 -5.21588 0
M  V30 9 N 1.41111 -0.549777 0.368684 0
M  V30 10 C 2.66332 -0.96396 0.893016 0
M  V30 11 O 2.7556 -2.12066 1.39528 0
M  V30 12 C 3.8596 -0.074987 0.859643 0 CFG=2
M  V30 13 C 3.72492 1.03117 -0.128481 0
M  V30 14 C 4.93637 1.88664 -0.148817 0
M  V30 15 C 5.11752 2.91211 0.786862 0
M  V30 16 C 6.23645 3.72683 0.759508 0
M  V30 17 C 7.21544 3.56027 -0.190056 0
M  V30 18 O 8.33736 4.39547 -0.196748 0
M  V30 19 C 7.05562 2.55711 -1.12057 0
M  V30 20 C 5.93506 1.74353 -1.09066 0
M  V30 21 N 5.02642 -0.870817 0.611848 0
M  V30 22 C 5.37988 -1.92921 1.4824 0
M  V30 23 N 5.53669 -1.68573 2.86099 0
M  V30 24 N 5.5556 -3.10832 1.00788 0
M  V30 25 C -1.01728 -0.714215 0.622163 0
M  V30 26 O -0.999126 0.537489 0.71768 0
M  V30 27 N -2.25689 -1.37009 0.722309 0
M  V30 28 C -3.54459 -0.747936 0.912816 0 CFG=1
M  V30 29 C -3.72278 0.166966 2.04194 0
M  V30 30 C -3.49711 -0.509199 3.37289 0
M  V30 31 C -4.50891 -1.21598 3.98683 0
M  V30 32 C -4.27645 -1.8154 5.21003 0
M  V30 33 C -3.01262 -1.69811 5.81459 0
M  V30 34 C -2.01084 -0.995586 5.20372 0
M  V30 35 C -2.27729 -0.401027 3.96758 0
M  V30 36 C -4.00565 -0.283274 -0.3908 0
M  V30 37 O -3.71395 -1.1503 -1.37666 0
M  V30 38 N -4.6643 0.821773 -0.861205 0
M  V30 39 C -4.99971 0.856202 -2.31714 0
M  V30 40 C -6.40013 1.42686 -2.39572 0
M  V30 41 N -7.15974 1.26332 -1.18152 0
M  V30 42 C -6.60487 1.91232 -0.0280322 0
M  V30 43 C -5.07652 1.99472 -0.171919 0
M  V30 44 H 0.465597 -2.22151 1.13959 0
M  V30 45 H -0.647112 -2.9008 -0.835744 0
M  V30 46 H 1.14126 -2.73191 -1.01265 0
M  V30 47 H 0.960887 -0.613951 -2.1316 0
M  V30 48 H -0.893154 -0.667641 -2.00231 0
M  V30 49 H 0.852775 -2.69507 -3.5192 0
M  V30 50 H -0.91609 -2.73556 -3.36041 0
M  V30 51 H -1.03709 -1.18749 -5.09739 0
M  V30 52 H 2.44661 -1.7338 -5.66486 0
M  V30 53 H 3.01961 -0.166707 -5.04578 0
M  V30 54 H -0.364343 1.2532 -5.04853 0
M  V30 55 H 1.35508 0.40096 -0.0444232 0
M  V30 56 H 3.89817 0.406916 1.87294 0
M  V30 57 H 2.87638 1.7252 0.117534 0
M  V30 58 H 3.57936 0.623064 -1.16138 0
M  V30 59 H 4.35056 3.05181 1.54175 0
M  V30 60 H 6.3458 4.52169 1.50771 0
M  V30 61 H 9.18581 4.15802 0.326608 0
M  V30 62 H 7.8414 2.44711 -1.86538 0
M  V30 63 H 5.83179 0.961221 -1.8483 0
M  V30 64 H 5.66436 -0.72145 -0.204756 0
M  V30 65 H 5.22474 -2.42452 3.54106 0
M  V30 66 H 5.96121 -0.769011 3.15771 0
M  V30 67 H 5.45867 -3.36388 0.00933626 0
M  V30 68 H -2.19683 -2.43664 0.647793 0
M  V30 69 H -4.22657 -1.67153 1.17156 0
M  V30 70 H -3.07551 1.04199 2.01903 0
M  V30 71 H -4.82838 0.415049 2.09328 0
M  V30 72 H -5.49128 -1.32711 3.55056 0
M  V30 73 H -5.01703 -2.38335 5.75089 0
M  V30 74 H -2.81949 -2.17095 6.78205 0
M  V30 75 H -1.05846 -0.918245 5.68183 0
M  V30 76 H -1.4284 0.149452 3.55675 0
M  V30 77 H -4.89794 -0.136858 -2.75605 0
M  V30 78 H -4.32359 1.55436 -2.84393 0
M  V30 79 H -6.91826 0.827521 -3.17943 0
M  V30 80 H -6.37506 2.48297 -2.6755 0
M  V30 81 H -7.49512 0.309821 -1.01244 0
M  V30 82 H -6.90315 1.35763 0.88515 0
M  V30 83 H -7.01716 2.9571 0.00363128 0
M  V30 84 H -4.61884 2.26207 0.761522 0
M  V30 85 H -4.93547 2.917 -0.833154 0
M  V30 END ATOM
M  V30 BEGIN BOND
M  V30 1 1 1 2
M  V30 2 1 2 3
M  V30 3 1 3 4
M  V30 4 1 4 5
M  V30 5 1 5 6
M  V30 6 1 6 7
M  V30 7 2 6 8 CFG=2
M  V30 8 1 1 9
M  V30 9 1 9 10
M  V30 10 2 10 11
M  V30 11 1 10 12
M  V30 12 1 12 13
M  V30 13 1 13 14
M  V30 14 2 14 15
M  V30 15 1 15 16
M  V30 16 2 16 17
M  V30 17 1 17 18
M  V30 18 1 17 19
M  V30 19 2 19 20
M  V30 20 1 12 21
M  V30 21 1 21 22
M  V30 22 1 22 23
M  V30 23 2 22 24 CFG=2
M  V30 24 1 1 25
M  V30 25 2 25 26
M  V30 26 1 25 27
M  V30 27 1 27 28
M  V30 28 1 28 29
M  V30 29 1 29 30
M  V30 30 2 30 31
M  V30 31 1 31 32
M  V30 32 2 32 33
M  V30 33 1 33 34
M  V30 34 2 34 35
M  V30 35 1 28 36
M  V30 36 2 36 37
M  V30 37 1 36 38
M  V30 38 1 38 39
M  V30 39 1 39 40
M  V30 40 1 40 41
M  V30 41 1 41 42
M  V30 42 1 42 43
M  V30 43 1 20 14
M  V30 44 1 35 30
M  V30 45 1 43 38
M  V30 46 1 1 44 CFG=1
M  V30 47 1 2 45
M  V30 48 1 2 46
M  V30 49 1 3 47
M  V30 50 1 3 48
M  V30 51 1 4 49
M  V30 52 1 4 50
M  V30 53 1 5 51
M  V30 54 1 7 52
M  V30 55 1 7 53
M  V30 56 1 8 54
M  V30 57 1 9 55
M  V30 58 1 12 56 CFG=1
M  V30 59 1 13 57
M  V30 60 1 13 58
M  V30 61 1 15 59
M  V30 62 1 16 60
M  V30 63 1 18 61
M  V30 64 1 19 62
M  V30 65 1 20 63
M  V30 66 1 21 64
M  V30 67 1 23 65
M  V30 68 1 23 66
M  V30 69 1 24 67
M  V30 70 1 27 68
M  V30 71 1 28 69 CFG=1
M  V30 72 1 29 70
M  V30 73 1 29 71
M  V30 74 1 31 72
M  V30 75 1 32 73
M  V30 76 1 33 74
M  V30 77 1 34 75
M  V30 78 1 35 76
M  V30 79 1 39 77
M  V30 80 1 39 78
M  V30 81 1 40 79
M  V30 82 1 40 80
M  V30 83 1 41 81
M  V30 84 1 42 82
M  V30 85 1 42 83
M  V30 86 1 43 84
M  V30 87 1 43 85
M  V30 END BOND
M  V30 END CTAB
M  END
