
     RDKit          3D

  0  0  0  0  0  0  0  0  0  0999 V3000
M  V30 BEGIN CTAB
M  V30 COUNTS 55 58 0 0 0
M  V30 BEGIN ATOM
M  V30 1 N 7.99733 0.4864 -0.325175 0
M  V30 2 C 7.60475 0.44673 1.02635 0
M  V30 3 C 6.92489 -0.830727 1.36777 0
M  V30 4 O 5.78282 -1.12641 0.674463 0
M  V30 5 C 4.56096 -0.528699 0.5904 0
M  V30 6 C 4.16674 0.586786 1.25848 0
M  V30 7 C 2.92784 1.13249 1.124 0
M  V30 8 C 1.97593 0.559723 0.272816 0
M  V30 9 C 2.37205 -0.565399 -0.40237 0
M  V30 10 C 3.61909 -1.1003 -0.255744 0
M  V30 11 C 0.701566 1.22265 0.149016 0
M  V30 12 O 0.682878 2.42016 0.680698 0
M  V30 13 N -0.511283 0.796092 -0.439941 0
M  V30 14 C -1.55748 1.83303 -0.375279 0
M  V30 15 C -2.75824 1.61287 -1.1775 0
M  V30 16 C -2.57598 0.468117 -2.11736 0 CFG=1
M  V30 17 C -2.19931 -0.727002 -1.29492 0 CFG=1
M  V30 18 C -0.701874 -0.484093 -0.980622 0
M  V30 19 N -2.86228 -0.894414 -0.0378003 0
M  V30 20 C -2.28193 -0.957759 1.16914 0
M  V30 21 N -3.21149 -1.1316 2.10873 0
M  V30 22 C -4.39545 -1.18154 1.51321 0
M  V30 23 C -4.18263 -1.03352 0.167864 0
M  V30 24 N -5.26456 -1.05898 -0.634642 0
M  V30 25 C -6.48539 -1.2228 -0.116576 0
M  V30 26 N -6.69628 -1.36896 1.21493 0
M  V30 27 C -5.66888 -1.35468 2.07927 0
M  V30 28 N -5.83295 -1.50287 3.47854 0
M  V30 29 C -3.66784 0.258208 -3.10892 0
M  V30 30 O -1.44108 0.845082 -2.90605 0
M  V30 31 H 7.26779 0.457416 -0.987833 0
M  V30 32 H 8.79164 1.00065 -0.584776 0
M  V30 33 H 8.52945 0.509568 1.6658 0
M  V30 34 H 7.00159 1.3171 1.26483 0
M  V30 35 H 6.66432 -0.768626 2.46416 0
M  V30 36 H 7.67624 -1.66744 1.24531 0
M  V30 37 H 4.85854 1.07341 1.95413 0
M  V30 38 H 2.63279 2.03131 1.67808 0
M  V30 39 H 1.73069 -1.07914 -1.11177 0
M  V30 40 H 3.92314 -1.99945 -0.799438 0
M  V30 41 H -1.81507 2.09605 0.671851 0
M  V30 42 H -1.03342 2.76965 -0.747986 0
M  V30 43 H -3.71144 1.54266 -0.571225 0
M  V30 44 H -2.97898 2.50706 -1.84073 0
M  V30 45 H -2.2227 -1.6724 -1.9072 0
M  V30 46 H -0.232287 -0.552302 -1.98525 0
M  V30 47 H -0.338885 -1.32533 -0.35669 0
M  V30 48 H -1.22841 -0.888966 1.42596 0
M  V30 49 H -7.36724 -1.24673 -0.737192 0
M  V30 50 H -5.1503 -1.04289 4.10778 0
M  V30 51 H -6.60133 -2.04705 3.85882 0
M  V30 52 H -3.91235 -0.802879 -3.32301 0
M  V30 53 H -3.40862 0.667517 -4.13642 0
M  V30 54 H -4.5803 0.871692 -2.84919 0
M  V30 55 H -1.51674 1.81512 -3.10076 0
M  V30 END ATOM
M  V30 BEGIN BOND
M  V30 1 1 1 2
M  V30 2 1 2 3
M  V30 3 1 3 4
M  V30 4 1 4 5
M  V30 5 2 5 6
M  V30 6 1 6 7
M  V30 7 2 7 8
M  V30 8 1 8 9
M  V30 9 2 9 10
M  V30 10 1 8 11
M  V30 11 2 11 12
M  V30 12 1 11 13
M  V30 13 1 13 14
M  V30 14 1 14 15
M  V30 15 1 15 16
M  V30 16 1 16 17
M  V30 17 1 17 18
M  V30 18 1 17 19
M  V30 19 1 19 20
M  V30 20 2 20 21
M  V30 21 1 21 22
M  V30 22 2 22 23
M  V30 23 1 23 24
M  V30 24 2 24 25
M  V30 25 1 25 26
M  V30 26 2 26 27
M  V30 27 1 27 28
M  V30 28 1 16 29
M  V30 29 1 16 30 CFG=3
M  V30 30 1 10 5
M  V30 31 1 18 13
M  V30 32 1 23 19
M  V30 33 1 27 22
M  V30 34 1 1 31
M  V30 35 1 1 32
M  V30 36 1 2 33
M  V30 37 1 2 34
M  V30 38 1 3 35
M  V30 39 1 3 36
M  V30 40 1 6 37
M  V30 41 1 7 38
M  V30 42 1 9 39
M  V30 43 1 10 40
M  V30 44 1 14 41
M  V30 45 1 14 42
M  V30 46 1 15 43
M  V30 47 1 15 44
M  V30 48 1 17 45 CFG=3
M  V30 49 1 18 46
M  V30 50 1 18 47
M  V30 51 1 20 48
M  V30 52 1 25 49
M  V30 53 1 28 50
M  V30 54 1 28 51
M  V30 55 1 29 52
M  V30 56 1 29 53
M  V30 57 1 29 54
M  V30 58 1 30 55
M  V30 END BOND
M  V30 END CTAB
M  END
