
     RDKit          3D

  0  0  0  0  0  0  0  0  0  0999 V3000
M  V30 BEGIN CTAB
M  V30 COUNTS 40 42 0 0 0
M  V30 BEGIN ATOM
M  V30 1 N -1.88655 -2.56195 1.17981 0
M  V30 2 C -2.96779 -1.86937 0.565142 0
M  V30 3 C -4.24847 -2.09958 1.08676 0
M  V30 4 C -5.3114 -1.47354 0.505153 0
M  V30 5 C -5.1531 -0.632013 -0.568852 0
M  V30 6 C -3.88776 -0.42879 -1.05336 0
M  V30 7 C -2.75298 -1.03874 -0.504161 0
M  V30 8 S -1.14739 -0.732447 -1.23047 0
M  V30 9 C -0.509268 0.829581 -0.60716 0
M  V30 10 C -1.00069 1.99787 -1.21172 0
M  V30 11 C -0.576881 3.25008 -0.840937 0
M  V30 12 C -1.12496 4.41708 -1.50616 0
M  V30 13 N -1.55731 5.34076 -2.0208 0
M  V30 14 C 0.363536 3.37258 0.158841 0
M  V30 15 C 0.839609 2.23641 0.74383 0
M  V30 16 C 0.411053 0.966044 0.368207 0
M  V30 17 S 1.13748 -0.418797 1.17664 0
M  V30 18 C 2.6087 -1.02618 0.37469 0
M  V30 19 C 2.48118 -2.00205 -0.584517 0
M  V30 20 C 3.58378 -2.53139 -1.26173 0
M  V30 21 C 4.82493 -2.03525 -0.931504 0
M  V30 22 C 4.93839 -1.05673 0.0323078 0
M  V30 23 C 3.85044 -0.528622 0.706287 0
M  V30 24 N 4.01941 0.485339 1.6981 0
M  V30 25 C 0.789263 4.68686 0.528574 0
M  V30 26 N 1.14626 5.7254 0.825326 0
M  V30 27 H -1.75853 -2.4446 2.20465 0
M  V30 28 H -1.23657 -3.16806 0.642863 0
M  V30 29 H -4.37709 -2.75484 1.92402 0
M  V30 30 H -6.30067 -1.64841 0.904403 0
M  V30 31 H -6.03023 -0.137628 -1.02183 0
M  V30 32 H -3.74574 0.223407 -1.88929 0
M  V30 33 H -1.74004 1.90191 -1.99771 0
M  V30 34 H 1.5729 2.34131 1.52277 0
M  V30 35 H 1.52826 -2.43313 -0.886478 0
M  V30 36 H 3.45514 -3.3032 -2.0167 0
M  V30 37 H 5.68015 -2.43895 -1.44989 0
M  V30 38 H 5.92664 -0.681202 0.275754 0
M  V30 39 H 3.98535 0.204883 2.69915 0
M  V30 40 H 4.17093 1.46592 1.45999 0
M  V30 END ATOM
M  V30 BEGIN BOND
M  V30 1 1 1 2
M  V30 2 2 2 3
M  V30 3 1 3 4
M  V30 4 2 4 5
M  V30 5 1 5 6
M  V30 6 2 6 7
M  V30 7 1 7 8
M  V30 8 1 8 9
M  V30 9 2 9 10
M  V30 10 1 10 11
M  V30 11 1 11 12
M  V30 12 3 12 13
M  V30 13 2 11 14
M  V30 14 1 14 15
M  V30 15 2 15 16
M  V30 16 1 16 17
M  V30 17 1 17 18
M  V30 18 2 18 19
M  V30 19 1 19 20
M  V30 20 2 20 21
M  V30 21 1 21 22
M  V30 22 2 22 23
M  V30 23 1 23 24
M  V30 24 1 14 25
M  V30 25 3 25 26
M  V30 26 1 7 2
M  V30 27 1 16 9
M  V30 28 1 23 18
M  V30 29 1 1 27
M  V30 30 1 1 28
M  V30 31 1 3 29
M  V30 32 1 4 30
M  V30 33 1 5 31
M  V30 34 1 6 32
M  V30 35 1 10 33
M  V30 36 1 15 34
M  V30 37 1 19 35
M  V30 38 1 20 36
M  V30 39 1 21 37
M  V30 40 1 22 38
M  V30 41 1 24 39
M  V30 42 1 24 40
M  V30 END BOND
M  V30 END CTAB
M  END
