
     RDKit          3D

  0  0  0  0  0  0  0  0  0  0999 V3000
M  V30 BEGIN CTAB
M  V30 COUNTS 26 27 0 0 0
M  V30 BEGIN ATOM
M  V30 1 O -4.5684 0.812743 -0.279636 0
M  V30 2 C -3.57544 0.178071 0.445054 0
M  V30 3 C -2.32051 1.03036 0.533133 0
M  V30 4 N -1.52205 -0.0412033 -0.0204186 0
M  V30 5 C -2.70157 -0.771305 -0.343671 0
M  V30 6 C -0.126307 -0.220701 -0.152427 0
M  V30 7 C 0.405583 -1.37504 -0.738203 0
M  V30 8 C 1.76304 -1.56969 -0.876375 0
M  V30 9 C 2.65484 -0.609058 -0.430359 0
M  V30 10 C 2.15731 0.546896 0.155145 0
M  V30 11 C 0.788744 0.715626 0.280876 0
M  V30 12 N 3.08236 1.52651 0.609488 0
M  V30 13 N 4.05246 -0.759168 -0.547813 0
M  V30 14 H -4.30567 0.957736 -1.21027 0
M  V30 15 H -3.91234 -0.184571 1.43049 0
M  V30 16 H -2.38479 1.94295 -0.0924981 0
M  V30 17 H -2.04369 1.2767 1.59217 0
M  V30 18 H -2.77997 -1.79547 0.0776424 0
M  V30 19 H -2.93571 -0.780954 -1.42842 0
M  V30 20 H -0.298306 -2.11651 -1.08198 0
M  V30 21 H 2.17941 -2.46799 -1.3323 0
M  V30 22 H 0.409587 1.61849 0.737897 0
M  V30 23 H 3.04231 2.46252 0.153806 0
M  V30 24 H 3.7532 1.29449 1.35894 0
M  V30 25 H 4.63506 -0.392143 -1.33026 0
M  V30 26 H 4.55086 -1.27929 0.206942 0
M  V30 END ATOM
M  V30 BEGIN BOND
M  V30 1 1 1 2
M  V30 2 1 2 3
M  V30 3 1 3 4
M  V30 4 1 4 5
M  V30 5 1 4 6
M  V30 6 2 6 7
M  V30 7 1 7 8
M  V30 8 2 8 9
M  V30 9 1 9 10
M  V30 10 2 10 11
M  V30 11 1 10 12
M  V30 12 1 9 13
M  V30 13 1 5 2
M  V30 14 1 11 6
M  V30 15 1 1 14
M  V30 16 1 2 15
M  V30 17 1 3 16
M  V30 18 1 3 17
M  V30 19 1 5 18
M  V30 20 1 5 19
M  V30 21 1 7 20
M  V30 22 1 8 21
M  V30 23 1 11 22
M  V30 24 1 12 23
M  V30 25 1 12 24
M  V30 26 1 13 25
M  V30 27 1 13 26
M  V30 END BOND
M  V30 END CTAB
M  END
