
     RDKit          3D

  0  0  0  0  0  0  0  0  0  0999 V3000
M  V30 BEGIN CTAB
M  V30 COUNTS 30 33 0 0 0
M  V30 BEGIN ATOM
M  V30 1 N 5.56081 0.519416 -1.59674 0
M  V30 2 C 4.73352 -0.457286 -1.00391 0
M  V30 3 N 5.02707 -1.75046 -1.20074 0
M  V30 4 C 4.23706 -2.67191 -0.634708 0
M  V30 5 N 3.16773 -2.34447 0.118469 0
M  V30 6 C 2.83335 -1.06154 0.344239 0
M  V30 7 C 3.64325 -0.0868381 -0.236295 0
M  V30 8 N 3.10679 1.08669 0.133231 0
M  V30 9 C 2.01987 0.904661 0.903034 0
M  V30 10 N 1.86805 -0.422751 1.02131 0
M  V30 11 S 1.05282 2.22617 1.5757 0
M  V30 12 S -0.5369 1.37664 2.70645 0
M  V30 13 C -1.92712 1.14893 1.60877 0
M  V30 14 N -2.19483 0.0514658 0.869757 0
M  V30 15 C -3.32187 0.23386 0.163675 0
M  V30 16 C -3.7973 1.48957 0.456127 0
M  V30 17 N -2.92123 2.01157 1.33739 0
M  V30 18 N -4.9295 1.92192 -0.128432 0
M  V30 19 C -5.63561 1.18035 -0.999388 0
M  V30 20 N -5.17779 -0.0482814 -1.29074 0
M  V30 21 C -4.05155 -0.520703 -0.730465 0
M  V30 22 N -3.62428 -1.82712 -1.08238 0
M  V30 23 H 6.58548 0.316677 -1.66489 0
M  V30 24 H 5.2246 1.4271 -1.97108 0
M  V30 25 H 4.43186 -3.72521 -0.763712 0
M  V30 26 H 1.10444 -0.868669 1.56476 0
M  V30 27 H -3.02162 2.95435 1.73849 0
M  V30 28 H -6.55959 1.56499 -1.46051 0
M  V30 29 H -2.86351 -2.28882 -0.504232 0
M  V30 30 H -4.03399 -2.3403 -1.886 0
M  V30 END ATOM
M  V30 BEGIN BOND
M  V30 1 1 1 2
M  V30 2 2 2 3
M  V30 3 1 3 4
M  V30 4 2 4 5
M  V30 5 1 5 6
M  V30 6 2 6 7
M  V30 7 1 7 8
M  V30 8 2 8 9
M  V30 9 1 9 10
M  V30 10 1 9 11
M  V30 11 1 11 12
M  V30 12 1 12 13
M  V30 13 2 13 14
M  V30 14 1 14 15
M  V30 15 2 15 16
M  V30 16 1 16 17
M  V30 17 1 16 18
M  V30 18 2 18 19
M  V30 19 1 19 20
M  V30 20 2 20 21
M  V30 21 1 21 22
M  V30 22 1 7 2
M  V30 23 1 17 13
M  V30 24 1 10 6
M  V30 25 1 21 15
M  V30 26 1 1 23
M  V30 27 1 1 24
M  V30 28 1 4 25
M  V30 29 1 10 26
M  V30 30 1 17 27
M  V30 31 1 19 28
M  V30 32 1 22 29
M  V30 33 1 22 30
M  V30 END BOND
M  V30 END CTAB
M  END
