
     RDKit          3D

  0  0  0  0  0  0  0  0  0  0999 V3000
M  V30 BEGIN CTAB
M  V30 COUNTS 47 48 0 0 0
M  V30 BEGIN ATOM
M  V30 1 N 3.75215 2.57292 -2.61 0
M  V30 2 C 2.80852 1.50846 -2.72065 0
M  V30 3 C 2.57474 0.852229 -1.40696 0 CFG=1
M  V30 4 O 1.65798 -0.188527 -1.49136 0
M  V30 5 C 1.16832 -0.582479 -0.256543 0 CFG=2
M  V30 6 O -0.0493612 -0.000600089 -0.0678844 0
M  V30 7 C -1.13799 -0.855539 -0.0285844 0 CFG=1
M  V30 8 O -1.75892 -0.922521 1.17029 0
M  V30 9 C -2.86805 -0.107698 1.30599 0 CFG=2
M  V30 10 C -3.37721 -0.264131 2.72304 0
M  V30 11 N -2.40093 0.111485 3.71375 0
M  V30 12 C -3.9827 -0.519062 0.376241 0 CFG=1
M  V30 13 O -4.55534 0.622697 -0.158709 0
M  V30 14 C -3.41583 -1.32045 -0.791966 0 CFG=2
M  V30 15 O -3.12062 -2.59219 -0.293354 0
M  V30 16 C -2.11207 -0.63552 -1.14144 0 CFG=1
M  V30 17 O -2.45271 0.734799 -1.26538 0
M  V30 18 C 2.08974 -0.372893 0.884975 0 CFG=2
M  V30 19 O 1.62906 0.760758 1.59681 0
M  V30 20 C 3.51526 -0.159857 0.576238 0 CFG=1
M  V30 21 O 4.2715 -1.31969 0.869288 0
M  V30 22 C 3.83548 0.231037 -0.824663 0 CFG=2
M  V30 23 O 4.91757 1.07524 -0.858493 0
M  V30 24 H 3.56925 3.16498 -1.75911 0
M  V30 25 H 3.61027 3.2268 -3.42368 0
M  V30 26 H 3.18155 0.772074 -3.45954 0
M  V30 27 H 1.85932 1.9084 -3.09092 0
M  V30 28 H 2.19671 1.57219 -0.659604 0
M  V30 29 H 1.00214 -1.69786 -0.343239 0
M  V30 30 H -0.6569 -1.87919 -0.177953 0
M  V30 31 H -2.67289 0.969557 1.16222 0
M  V30 32 H -4.28403 0.365533 2.90317 0
M  V30 33 H -3.68929 -1.31924 2.92432 0
M  V30 34 H -1.46716 -0.212406 3.43679 0
M  V30 35 H -2.37136 1.15758 3.81393 0
M  V30 36 H -4.75487 -1.06068 0.942562 0
M  V30 37 H -5.33766 0.931842 0.365654 0
M  V30 38 H -4.10915 -1.37874 -1.63083 0
M  V30 39 H -3.89187 -2.98279 0.195312 0
M  V30 40 H -1.73147 -1.00879 -2.12264 0
M  V30 41 H -3.00058 0.829641 -2.08075 0
M  V30 42 H 2.02367 -1.20837 1.64438 0
M  V30 43 H 2.13862 0.878441 2.43504 0
M  V30 44 H 3.9635 0.628368 1.25099 0
M  V30 45 H 3.67383 -2.09918 1.04292 0
M  V30 46 H 4.01473 -0.717464 -1.40196 0
M  V30 47 H 5.74508 0.530828 -0.784472 0
M  V30 END ATOM
M  V30 BEGIN BOND
M  V30 1 1 1 2
M  V30 2 1 2 3
M  V30 3 1 3 4
M  V30 4 1 4 5
M  V30 5 1 5 6
M  V30 6 1 6 7
M  V30 7 1 7 8
M  V30 8 1 8 9
M  V30 9 1 9 10
M  V30 10 1 10 11
M  V30 11 1 9 12
M  V30 12 1 12 13
M  V30 13 1 12 14
M  V30 14 1 14 15
M  V30 15 1 14 16
M  V30 16 1 16 17
M  V30 17 1 5 18
M  V30 18 1 18 19
M  V30 19 1 18 20
M  V30 20 1 20 21
M  V30 21 1 20 22
M  V30 22 1 22 23
M  V30 23 1 22 3
M  V30 24 1 16 7
M  V30 25 1 1 24
M  V30 26 1 1 25
M  V30 27 1 2 26
M  V30 28 1 2 27
M  V30 29 1 3 28 CFG=1
M  V30 30 1 5 29 CFG=3
M  V30 31 1 7 30 CFG=3
M  V30 32 1 9 31 CFG=3
M  V30 33 1 10 32
M  V30 34 1 10 33
M  V30 35 1 11 34
M  V30 36 1 11 35
M  V30 37 1 12 36 CFG=1
M  V30 38 1 13 37
M  V30 39 1 14 38 CFG=3
M  V30 40 1 15 39
M  V30 41 1 16 40 CFG=3
M  V30 42 1 17 41
M  V30 43 1 18 42 CFG=1
M  V30 44 1 19 43
M  V30 45 1 20 44 CFG=1
M  V30 46 1 21 45
M  V30 47 1 22 46 CFG=3
M  V30 48 1 23 47
M  V30 END BOND
M  V30 END CTAB
M  END
