
     RDKit          3D

  0  0  0  0  0  0  0  0  0  0999 V3000
M  V30 BEGIN CTAB
M  V30 COUNTS 43 45 0 0 0
M  V30 BEGIN ATOM
M  V30 1 C 6.32572 -0.925304 -1.29022 0
M  V30 2 C 4.86855 -0.722096 -1.6164 0
M  V30 3 C 4.11142 -0.209014 -0.417132 0
M  V30 4 O 2.74858 -0.0147654 -0.708173 0
M  V30 5 C 1.84386 0.452485 0.234976 0
M  V30 6 C 2.20962 0.762366 1.52911 0
M  V30 7 C 1.30814 1.23055 2.47748 0
M  V30 8 C -0.0287838 1.39229 2.09503 0
M  V30 9 C -0.412524 1.09134 0.818715 0
M  V30 10 C 0.513881 0.629761 -0.0903512 0
M  V30 11 C -1.86355 1.28289 0.466159 0
M  V30 12 C -1.87105 1.83522 -0.900484 0
M  V30 13 C -2.50887 1.25365 -1.88733 0
M  V30 14 N -2.43977 1.89222 -3.17537 0
M  V30 15 O -3.20545 0.086149 -1.6747 0
M  V30 16 C -3.27343 -0.532934 -0.429318 0
M  V30 17 C -2.62226 0.0370635 0.635945 0
M  V30 18 C -2.69649 -0.584148 1.86333 0
M  V30 19 C -3.41013 -1.76446 2.04307 0
M  V30 20 C -4.06636 -2.34297 0.979333 0
M  V30 21 C -3.98736 -1.71539 -0.245488 0
M  V30 22 N -4.78246 -3.54894 1.21206 0
M  V30 23 C -1.13151 3.08305 -1.14609 0
M  V30 24 N -0.540735 4.04945 -1.35086 0
M  V30 25 H 6.49032 -2.0047 -1.09662 0
M  V30 26 H 6.9399 -0.616099 -2.14998 0
M  V30 27 H 6.59749 -0.394214 -0.349571 0
M  V30 28 H 4.80373 0.0612143 -2.39742 0
M  V30 29 H 4.37813 -1.66695 -1.92655 0
M  V30 30 H 4.56995 0.741771 -0.0240485 0
M  V30 31 H 4.22098 -0.947766 0.390736 0
M  V30 32 H 3.25124 0.629425 1.80385 0
M  V30 33 H 1.63433 1.46371 3.48654 0
M  V30 34 H -0.747947 1.75639 2.81369 0
M  V30 35 H 0.17643 0.397691 -1.10353 0
M  V30 36 H -2.27605 2.09672 1.14274 0
M  V30 37 H -1.77614 1.55274 -3.91008 0
M  V30 38 H -3.08472 2.69842 -3.31761 0
M  V30 39 H -2.18888 -0.147355 2.71274 0
M  V30 40 H -3.45398 -2.23766 3.0257 0
M  V30 41 H -4.50594 -2.17718 -1.07484 0
M  V30 42 H -4.3928 -4.29941 1.7971 0
M  V30 43 H -5.72509 -3.62521 0.753861 0
M  V30 END ATOM
M  V30 BEGIN BOND
M  V30 1 1 1 2
M  V30 2 1 2 3
M  V30 3 1 3 4
M  V30 4 1 4 5
M  V30 5 2 5 6
M  V30 6 1 6 7
M  V30 7 2 7 8
M  V30 8 1 8 9
M  V30 9 2 9 10
M  V30 10 1 9 11
M  V30 11 1 11 12
M  V30 12 2 12 13
M  V30 13 1 13 14
M  V30 14 1 13 15
M  V30 15 1 15 16
M  V30 16 2 16 17
M  V30 17 1 17 18
M  V30 18 2 18 19
M  V30 19 1 19 20
M  V30 20 2 20 21
M  V30 21 1 20 22
M  V30 22 1 12 23
M  V30 23 3 23 24
M  V30 24 1 10 5
M  V30 25 1 17 11
M  V30 26 1 21 16
M  V30 27 1 1 25
M  V30 28 1 1 26
M  V30 29 1 1 27
M  V30 30 1 2 28
M  V30 31 1 2 29
M  V30 32 1 3 30
M  V30 33 1 3 31
M  V30 34 1 6 32
M  V30 35 1 7 33
M  V30 36 1 8 34
M  V30 37 1 10 35
M  V30 38 1 11 36
M  V30 39 1 14 37
M  V30 40 1 14 38
M  V30 41 1 18 39
M  V30 42 1 19 40
M  V30 43 1 21 41
M  V30 44 1 22 42
M  V30 45 1 22 43
M  V30 END BOND
M  V30 END CTAB
M  END
