
     RDKit          3D

  0  0  0  0  0  0  0  0  0  0999 V3000
M  V30 BEGIN CTAB
M  V30 COUNTS 92 96 0 0 0
M  V30 BEGIN ATOM
M  V30 1 N -6.52677 6.61665 0.396714 0
M  V30 2 C -5.84975 5.42481 0.0565106 0
M  V30 3 C -4.91107 5.40577 -0.944596 0
M  V30 4 C -4.27682 4.24092 -1.24997 0
M  V30 5 C -4.57406 3.05418 -0.549397 0
M  V30 6 N -3.88407 1.8722 -0.885094 0
M  V30 7 C -4.2531 0.546783 -0.655318 0
M  V30 8 O -5.34756 0.300633 -0.0716813 0
M  V30 9 N -3.4679 -0.555762 -1.04034 0
M  V30 10 C -2.20875 -0.338473 -1.71466 0
M  V30 11 C -1.04477 -0.18617 -0.853036 0
M  V30 12 C 0.219265 -0.350742 -1.37439 0
M  V30 13 C 1.35423 -0.218458 -0.56959 0
M  V30 14 C 2.64782 -0.426319 -1.23205 0
M  V30 15 N 3.76898 -0.595653 -0.366569 0
M  V30 16 C 4.15363 -1.93003 0.0423845 0
M  V30 17 C 5.49952 -2.35203 -0.574811 0
M  V30 18 C 5.86175 -3.71064 -0.0110298 0
M  V30 19 C 4.65295 -4.58275 -0.131434 0
M  V30 20 C 3.64677 -4.42433 0.956244 0
M  V30 21 C 4.00907 -3.45178 2.02943 0
M  V30 22 C 4.3044 -2.06814 1.51265 0
M  V30 23 C 4.50299 0.525118 0.0795387 0
M  V30 24 O 5.4951 0.359717 0.825435 0
M  V30 25 N 4.12555 1.82343 -0.308276 0
M  V30 26 C 4.72565 3.04598 0.0341816 0
M  V30 27 C 5.71061 3.24986 0.954354 0
M  V30 28 C 6.24781 4.50365 1.21545 0
M  V30 29 C 5.80258 5.62524 0.54413 0
M  V30 30 N 6.34123 6.91329 0.804212 0
M  V30 31 C 4.81111 5.44743 -0.387943 0
M  V30 32 C 4.29754 4.21446 -0.630317 0
M  V30 33 C 1.18889 0.0797393 0.751428 0
M  V30 34 C -0.0583635 0.245541 1.27993 0
M  V30 35 C -1.16855 0.111068 0.472712 0
M  V30 36 C -3.94721 -1.91846 -0.774506 0
M  V30 37 C -4.22622 -2.19054 0.657842 0
M  V30 38 C -3.72863 -3.60204 0.984591 0
M  V30 39 C -4.78029 -4.62736 0.67942 0
M  V30 40 C -5.24727 -4.55761 -0.758875 0
M  V30 41 C -6.02285 -3.32104 -1.07868 0
M  V30 42 C -5.16943 -2.21665 -1.62454 0
M  V30 43 C -5.50959 3.09053 0.443986 0
M  V30 44 C -6.16252 4.28231 0.760768 0
M  V30 45 H -7.46696 6.88056 -0.0132797 0
M  V30 46 H -6.11068 7.28362 1.07549 0
M  V30 47 H -4.67568 6.31572 -1.49083 0
M  V30 48 H -3.535 4.19803 -2.03151 0
M  V30 49 H -2.93511 2.03386 -1.37958 0
M  V30 50 H -2.32963 0.517184 -2.40598 0
M  V30 51 H -2.04105 -1.22411 -2.42792 0
M  V30 52 H 0.312509 -0.583285 -2.41262 0
M  V30 53 H 2.54446 -1.38308 -1.86395 0
M  V30 54 H 2.76386 0.349478 -2.01931 0
M  V30 55 H 3.43337 -2.65384 -0.403226 0
M  V30 56 H 6.30677 -1.66372 -0.306099 0
M  V30 57 H 5.36205 -2.46953 -1.66143 0
M  V30 58 H 6.2622 -3.64677 1.02128 0
M  V30 59 H 6.66443 -4.13456 -0.645591 0
M  V30 60 H 4.19998 -4.37261 -1.13014 0
M  V30 61 H 5.02372 -5.6448 -0.230328 0
M  V30 62 H 3.56199 -5.43187 1.4637 0
M  V30 63 H 2.60209 -4.26115 0.571193 0
M  V30 64 H 3.18267 -3.43263 2.76977 0
M  V30 65 H 4.87315 -3.89688 2.57865 0
M  V30 66 H 5.38353 -1.87083 1.7893 0
M  V30 67 H 3.72704 -1.34908 2.11964 0
M  V30 68 H 3.2612 1.90688 -0.94094 0
M  V30 69 H 6.10756 2.44331 1.52089 0
M  V30 70 H 7.0339 4.63481 1.95601 0
M  V30 71 H 7.36432 7.01342 0.937977 0
M  V30 72 H 5.72997 7.75016 0.861571 0
M  V30 73 H 4.43213 6.32202 -0.942063 0
M  V30 74 H 3.51766 4.11504 -1.37612 0
M  V30 75 H 2.04859 0.184574 1.37707 0
M  V30 76 H -0.14672 0.481063 2.32861 0
M  V30 77 H -2.12083 0.254223 0.96538 0
M  V30 78 H -3.15716 -2.60161 -1.13786 0
M  V30 79 H -5.29927 -2.0884 0.933297 0
M  V30 80 H -3.68946 -1.52178 1.36066 0
M  V30 81 H -2.77701 -3.78903 0.443425 0
M  V30 82 H -3.49435 -3.69501 2.06589 0
M  V30 83 H -4.30883 -5.62552 0.803837 0
M  V30 84 H -5.59543 -4.5401 1.39627 0
M  V30 85 H -4.40956 -4.73366 -1.44353 0
M  V30 86 H -5.94814 -5.43399 -0.881605 0
M  V30 87 H -6.73233 -3.5947 -1.91554 0
M  V30 88 H -6.67182 -3.01987 -0.249613 0
M  V30 89 H -5.76867 -1.31521 -1.86364 0
M  V30 90 H -4.80755 -2.56765 -2.63645 0
M  V30 91 H -5.78336 2.23507 1.03568 0
M  V30 92 H -6.89647 4.27193 1.55141 0
M  V30 END ATOM
M  V30 BEGIN BOND
M  V30 1 1 1 2
M  V30 2 2 2 3
M  V30 3 1 3 4
M  V30 4 2 4 5
M  V30 5 1 5 6
M  V30 6 1 6 7
M  V30 7 2 7 8
M  V30 8 1 7 9
M  V30 9 1 9 10
M  V30 10 1 10 11
M  V30 11 2 11 12
M  V30 12 1 12 13
M  V30 13 1 13 14
M  V30 14 1 14 15
M  V30 15 1 15 16
M  V30 16 1 16 17
M  V30 17 1 17 18
M  V30 18 1 18 19
M  V30 19 1 19 20
M  V30 20 1 20 21
M  V30 21 1 21 22
M  V30 22 1 15 23
M  V30 23 2 23 24
M  V30 24 1 23 25
M  V30 25 1 25 26
M  V30 26 2 26 27
M  V30 27 1 27 28
M  V30 28 2 28 29
M  V30 29 1 29 30
M  V30 30 1 29 31
M  V30 31 2 31 32
M  V30 32 2 13 33
M  V30 33 1 33 34
M  V30 34 2 34 35
M  V30 35 1 9 36
M  V30 36 1 36 37
M  V30 37 1 37 38
M  V30 38 1 38 39
M  V30 39 1 39 40
M  V30 40 1 40 41
M  V30 41 1 41 42
M  V30 42 1 5 43
M  V30 43 2 43 44
M  V30 44 1 44 2
M  V30 45 1 35 11
M  V30 46 1 42 36
M  V30 47 1 22 16
M  V30 48 1 32 26
M  V30 49 1 1 45
M  V30 50 1 1 46
M  V30 51 1 3 47
M  V30 52 1 4 48
M  V30 53 1 6 49
M  V30 54 1 10 50
M  V30 55 1 10 51
M  V30 56 1 12 52
M  V30 57 1 14 53
M  V30 58 1 14 54
M  V30 59 1 16 55
M  V30 60 1 17 56
M  V30 61 1 17 57
M  V30 62 1 18 58
M  V30 63 1 18 59
M  V30 64 1 19 60
M  V30 65 1 19 61
M  V30 66 1 20 62
M  V30 67 1 20 63
M  V30 68 1 21 64
M  V30 69 1 21 65
M  V30 70 1 22 66
M  V30 71 1 22 67
M  V30 72 1 25 68
M  V30 73 1 27 69
M  V30 74 1 28 70
M  V30 75 1 30 71
M  V30 76 1 30 72
M  V30 77 1 31 73
M  V30 78 1 32 74
M  V30 79 1 33 75
M  V30 80 1 34 76
M  V30 81 1 35 77
M  V30 82 1 36 78
M  V30 83 1 37 79
M  V30 84 1 37 80
M  V30 85 1 38 81
M  V30 86 1 38 82
M  V30 87 1 39 83
M  V30 88 1 39 84
M  V30 89 1 40 85
M  V30 90 1 40 86
M  V30 91 1 41 87
M  V30 92 1 41 88
M  V30 93 1 42 89
M  V30 94 1 42 90
M  V30 95 1 43 91
M  V30 96 1 44 92
M  V30 END BOND
M  V30 END CTAB
M  END
