
     RDKit          3D

  0  0  0  0  0  0  0  0  0  0999 V3000
M  V30 BEGIN CTAB
M  V30 COUNTS 38 41 0 0 0
M  V30 BEGIN ATOM
M  V30 1 N 6.1601 2.1718 0.435259 0
M  V30 2 C 5.15315 1.18098 0.152891 0
M  V30 3 N 3.89846 1.56801 -0.0667349 0
M  V30 4 C 2.85756 0.730433 -0.363413 0
M  V30 5 C 1.55843 1.40006 -0.549024 0
M  V30 6 S 0.546577 1.28098 0.918476 0
M  V30 7 C -0.963199 0.381724 0.655642 0
M  V30 8 N -2.08722 1.06111 0.264201 0
M  V30 9 C -3.2681 0.480317 0.0152728 0
M  V30 10 N -3.33016 -0.83938 0.162749 0
M  V30 11 C -2.3023 -1.61524 0.538297 0
M  V30 12 C -1.07115 -0.962754 0.794462 0
M  V30 13 C -0.00730412 -1.75788 1.18124 0
M  V30 14 C -0.168614 -3.11784 1.29828 0
M  V30 15 C -1.3609 -3.75924 1.04929 0
M  V30 16 C -2.42315 -2.98022 0.66829 0
M  V30 17 C -4.41717 1.30727 -0.403721 0
M  V30 18 C -4.35657 2.66563 -0.618117 0
M  V30 19 C -5.62259 3.10057 -0.995041 0
M  V30 20 C -6.38272 1.95353 -0.983112 0
M  V30 21 O -5.63086 0.932221 -0.632203 0
M  V30 22 N 3.14958 -0.554085 -0.429837 0
M  V30 23 C 4.4003 -0.989313 -0.213257 0
M  V30 24 N 5.42944 -0.134965 0.0809284 0
M  V30 25 N 4.71717 -2.37612 -0.254872 0
M  V30 26 H 6.8038 2.485 -0.31706 0
M  V30 27 H 6.27626 2.60222 1.37569 0
M  V30 28 H 1.03069 0.96525 -1.44238 0
M  V30 29 H 1.72992 2.46795 -0.833072 0
M  V30 30 H 0.930155 -1.26322 1.39247 0
M  V30 31 H 0.71337 -3.68778 1.60343 0
M  V30 32 H -1.45118 -4.85328 1.1545 0
M  V30 33 H -3.39141 -3.44141 0.465257 0
M  V30 34 H -3.51647 3.33812 -0.527444 0
M  V30 35 H -5.87631 4.124 -1.23094 0
M  V30 36 H -7.43737 1.96424 -1.237 0
M  V30 37 H 3.99135 -3.12195 -0.33504 0
M  V30 38 H 5.71843 -2.70673 -0.202769 0
M  V30 END ATOM
M  V30 BEGIN BOND
M  V30 1 1 1 2
M  V30 2 2 2 3
M  V30 3 1 3 4
M  V30 4 1 4 5
M  V30 5 1 5 6
M  V30 6 1 6 7
M  V30 7 2 7 8
M  V30 8 1 8 9
M  V30 9 2 9 10
M  V30 10 1 10 11
M  V30 11 2 11 12
M  V30 12 1 12 13
M  V30 13 2 13 14
M  V30 14 1 14 15
M  V30 15 2 15 16
M  V30 16 1 9 17
M  V30 17 2 17 18
M  V30 18 1 18 19
M  V30 19 2 19 20
M  V30 20 1 20 21
M  V30 21 2 4 22
M  V30 22 1 22 23
M  V30 23 2 23 24
M  V30 24 1 23 25
M  V30 25 1 24 2
M  V30 26 1 12 7
M  V30 27 1 21 17
M  V30 28 1 16 11
M  V30 29 1 1 26
M  V30 30 1 1 27
M  V30 31 1 5 28
M  V30 32 1 5 29
M  V30 33 1 13 30
M  V30 34 1 14 31
M  V30 35 1 15 32
M  V30 36 1 16 33
M  V30 37 1 18 34
M  V30 38 1 19 35
M  V30 39 1 20 36
M  V30 40 1 25 37
M  V30 41 1 25 38
M  V30 END BOND
M  V30 END CTAB
M  END
