
     RDKit          3D

  0  0  0  0  0  0  0  0  0  0999 V3000
M  V30 BEGIN CTAB
M  V30 COUNTS 28 28 0 0 0
M  V30 BEGIN ATOM
M  V30 1 N -2.78328 1.87472 -0.990764 0
M  V30 2 C -3.22214 0.689259 -0.316439 0
M  V30 3 C -2.12566 -0.285973 -0.0984529 0
M  V30 4 C -2.42779 -1.46926 0.543426 0
M  V30 5 C -1.41562 -2.38282 0.751085 0
M  V30 6 C -0.12961 -2.11432 0.323999 0
M  V30 7 C 0.200289 -0.937608 -0.321114 0
M  V30 8 C -0.830028 -0.0311732 -0.521134 0
M  V30 9 C 1.58183 -0.642821 -0.782965 0
M  V30 10 C 2.35039 0.0712578 0.32485 0 CFG=1
M  V30 11 C 3.71728 0.39083 -0.0627984 0
M  V30 12 O 4.49533 -0.513313 -0.443593 0
M  V30 13 O 4.18763 1.68735 -0.0212221 0
M  V30 14 N 1.56649 1.18806 0.739403 0
M  V30 15 H -2.10046 2.39024 -0.376184 0
M  V30 16 H -3.60886 2.50416 -1.09045 0
M  V30 17 H -3.65281 0.976871 0.660438 0
M  V30 18 H -4.00597 0.172466 -0.904191 0
M  V30 19 H -3.45744 -1.64452 0.866189 0
M  V30 20 H -1.65033 -3.32714 1.26185 0
M  V30 21 H 0.689385 -2.82487 0.47817 0
M  V30 22 H -0.586335 0.890757 -1.02316 0
M  V30 23 H 2.09305 -1.62582 -0.961235 0
M  V30 24 H 1.61659 -0.0746562 -1.71744 0
M  V30 25 H 2.36697 -0.658118 1.18116 0
M  V30 26 H 3.94963 2.24165 0.808186 0
M  V30 27 H 1.78516 1.55838 1.67906 0
M  V30 28 H 1.3963 1.89641 0.0133362 0
M  V30 END ATOM
M  V30 BEGIN BOND
M  V30 1 1 1 2
M  V30 2 1 2 3
M  V30 3 2 3 4
M  V30 4 1 4 5
M  V30 5 2 5 6
M  V30 6 1 6 7
M  V30 7 2 7 8
M  V30 8 1 7 9
M  V30 9 1 9 10
M  V30 10 1 10 11
M  V30 11 2 11 12
M  V30 12 1 11 13
M  V30 13 1 10 14
M  V30 14 1 8 3
M  V30 15 1 1 15
M  V30 16 1 1 16
M  V30 17 1 2 17
M  V30 18 1 2 18
M  V30 19 1 4 19
M  V30 20 1 5 20
M  V30 21 1 6 21
M  V30 22 1 8 22
M  V30 23 1 9 23
M  V30 24 1 9 24
M  V30 25 1 10 25 CFG=1
M  V30 26 1 13 26
M  V30 27 1 14 27
M  V30 28 1 14 28
M  V30 END BOND
M  V30 END CTAB
M  END
