
     RDKit          3D

  0  0  0  0  0  0  0  0  0  0999 V3000
M  V30 BEGIN CTAB
M  V30 COUNTS 53 54 0 0 0
M  V30 BEGIN ATOM
M  V30 1 N 1.71508 -4.77323 -0.624704 0
M  V30 2 C 2.79266 -3.89031 -1.08269 0
M  V30 3 C 2.2117 -2.48324 -1.0668 0
M  V30 4 C 1.77385 -2.12112 0.325445 0
M  V30 5 N 1.23656 -0.812856 0.375357 0
M  V30 6 S 2.28641 0.418963 0.946584 0
M  V30 7 O 1.48108 1.69121 1.00208 0
M  V30 8 O 2.68507 -0.00233356 2.35857 0
M  V30 9 C 3.66958 0.544865 -0.106269 0
M  V30 10 C 4.6615 1.59984 0.267908 0
M  V30 11 C 4.13017 2.98735 0.295547 0
M  V30 12 N 3.60726 3.42177 -0.980319 0
M  V30 13 C -0.11728 -0.691167 0.808987 0
M  V30 14 C -0.858281 0.110948 -0.201154 0
M  V30 15 C -0.244002 0.601193 -1.33049 0
M  V30 16 C -0.891238 1.34804 -2.29451 0
M  V30 17 C -2.23097 1.62587 -2.12806 0
M  V30 18 C -2.86407 1.14255 -1.00159 0
M  V30 19 C -2.20805 0.399103 -0.0475348 0
M  V30 20 O -2.87828 -0.0657023 1.0651 0
M  V30 21 C -4.24985 0.231764 1.21334 0
M  V30 22 C -4.6321 1.37719 1.87278 0
M  V30 23 C -5.97083 1.66543 2.01624 0
M  V30 24 C -6.91348 0.812489 1.50298 0
M  V30 25 C -6.54434 -0.331091 0.844381 0
M  V30 26 C -5.20558 -0.617009 0.702269 0
M  V30 27 H 1.72789 -5.64456 -1.16932 0
M  V30 28 H 1.7737 -4.93188 0.400742 0
M  V30 29 H 3.64787 -3.93846 -0.380041 0
M  V30 30 H 3.10606 -4.11858 -2.11314 0
M  V30 31 H 2.88991 -1.7295 -1.46908 0
M  V30 32 H 1.26516 -2.49631 -1.68809 0
M  V30 33 H 2.65941 -2.23203 0.98127 0
M  V30 34 H 1.03491 -2.8757 0.688364 0
M  V30 35 H 4.21534 -0.447078 -0.0327894 0
M  V30 36 H 3.3324 0.613765 -1.15475 0
M  V30 37 H 5.48676 1.55967 -0.473628 0
M  V30 38 H 5.11616 1.3483 1.24746 0
M  V30 39 H 3.41704 3.20788 1.09663 0
M  V30 40 H 5.01635 3.66094 0.497004 0
M  V30 41 H 2.97703 4.22625 -0.915963 0
M  V30 42 H 3.16043 2.62258 -1.46377 0
M  V30 43 H -0.612858 -1.69027 0.881008 0
M  V30 44 H -0.19489 -0.138198 1.77217 0
M  V30 45 H 0.808538 0.409612 -1.5078 0
M  V30 46 H -0.353935 1.70888 -3.1664 0
M  V30 47 H -2.7126 2.21211 -2.89738 0
M  V30 48 H -3.91665 1.37828 -0.900565 0
M  V30 49 H -3.86887 2.04459 2.27485 0
M  V30 50 H -6.26767 2.55679 2.5294 0
M  V30 51 H -7.97689 1.03888 1.61545 0
M  V30 52 H -7.29251 -1.01981 0.430186 0
M  V30 53 H -4.88066 -1.5167 0.184743 0
M  V30 END ATOM
M  V30 BEGIN BOND
M  V30 1 1 1 2
M  V30 2 1 2 3
M  V30 3 1 3 4
M  V30 4 1 4 5
M  V30 5 1 5 6
M  V30 6 2 6 7
M  V30 7 2 6 8
M  V30 8 1 6 9
M  V30 9 1 9 10
M  V30 10 1 10 11
M  V30 11 1 11 12
M  V30 12 1 5 13
M  V30 13 1 13 14
M  V30 14 2 14 15
M  V30 15 1 15 16
M  V30 16 2 16 17
M  V30 17 1 17 18
M  V30 18 2 18 19
M  V30 19 1 19 20
M  V30 20 1 20 21
M  V30 21 2 21 22
M  V30 22 1 22 23
M  V30 23 2 23 24
M  V30 24 1 24 25
M  V30 25 2 25 26
M  V30 26 1 19 14
M  V30 27 1 26 21
M  V30 28 1 1 27
M  V30 29 1 1 28
M  V30 30 1 2 29
M  V30 31 1 2 30
M  V30 32 1 3 31
M  V30 33 1 3 32
M  V30 34 1 4 33
M  V30 35 1 4 34
M  V30 36 1 9 35
M  V30 37 1 9 36
M  V30 38 1 10 37
M  V30 39 1 10 38
M  V30 40 1 11 39
M  V30 41 1 11 40
M  V30 42 1 12 41
M  V30 43 1 12 42
M  V30 44 1 13 43
M  V30 45 1 13 44
M  V30 46 1 15 45
M  V30 47 1 16 46
M  V30 48 1 17 47
M  V30 49 1 18 48
M  V30 50 1 22 49
M  V30 51 1 23 50
M  V30 52 1 24 51
M  V30 53 1 25 52
M  V30 54 1 26 53
M  V30 END BOND
M  V30 END CTAB
M  END
