
     RDKit          3D

  0  0  0  0  0  0  0  0  0  0999 V3000
M  V30 BEGIN CTAB
M  V30 COUNTS 26 27 0 0 0
M  V30 BEGIN ATOM
M  V30 1 N 4.51999 0.535014 -0.27996 0
M  V30 2 C 3.10377 0.4229 -0.221164 0
M  V30 3 C 2.43366 -0.454529 -1.07224 0
M  V30 4 C 1.05056 -0.55288 -1.00294 0
M  V30 5 C 0.315537 0.201741 -0.105721 0
M  V30 6 C 0.994336 1.06471 0.728776 0
M  V30 7 C 2.38685 1.18223 0.67865 0
M  V30 8 C -1.13673 0.116475 -0.00937522 0
M  V30 9 C -1.81676 -1.08001 0.0311454 0
M  V30 10 N -1.08906 -2.29271 -0.0152459 0
M  V30 11 C -3.19066 -1.09761 0.11912 0
M  V30 12 C -3.94216 0.0652734 0.170341 0
M  V30 13 C -3.26091 1.28338 0.129922 0
M  V30 14 C -1.89201 1.29892 0.0422026 0
M  V30 15 H 4.94239 1.33402 -0.795932 0
M  V30 16 H 5.12009 -0.173732 0.18751 0
M  V30 17 H 3.00118 -1.04397 -1.77212 0
M  V30 18 H 0.569897 -1.24779 -1.68667 0
M  V30 19 H 0.496388 1.69577 1.46425 0
M  V30 20 H 2.94354 1.8501 1.32053 0
M  V30 21 H -0.244934 -2.5116 0.52946 0
M  V30 22 H -1.42501 -3.06415 -0.664644 0
M  V30 23 H -3.69607 -2.0391 0.149012 0
M  V30 24 H -5.02149 0.065155 0.239492 0
M  V30 25 H -3.81615 2.22154 0.168028 0
M  V30 26 H -1.34624 2.22087 0.00967035 0
M  V30 END ATOM
M  V30 BEGIN BOND
M  V30 1 1 1 2
M  V30 2 2 2 3
M  V30 3 1 3 4
M  V30 4 2 4 5
M  V30 5 1 5 6
M  V30 6 2 6 7
M  V30 7 1 5 8
M  V30 8 2 8 9
M  V30 9 1 9 10
M  V30 10 1 9 11
M  V30 11 2 11 12
M  V30 12 1 12 13
M  V30 13 2 13 14
M  V30 14 1 7 2
M  V30 15 1 14 8
M  V30 16 1 1 15
M  V30 17 1 1 16
M  V30 18 1 3 17
M  V30 19 1 4 18
M  V30 20 1 6 19
M  V30 21 1 7 20
M  V30 22 1 10 21
M  V30 23 1 10 22
M  V30 24 1 11 23
M  V30 25 1 12 24
M  V30 26 1 13 25
M  V30 27 1 14 26
M  V30 END BOND
M  V30 END CTAB
M  END
