
     RDKit          3D

  0  0  0  0  0  0  0  0  0  0999 V3000
M  V30 BEGIN CTAB
M  V30 COUNTS 40 41 0 0 0
M  V30 BEGIN ATOM
M  V30 1 C 1.9489 2.10983 2.0439 0
M  V30 2 C 2.98915 1.06523 2.28636 0
M  V30 3 O 3.57352 0.641171 1.11163 0
M  V30 4 C 2.87997 0.0239601 0.097938 0
M  V30 5 C 1.5388 -0.272522 0.0974341 0
M  V30 6 C 0.891505 -0.905624 -0.970146 0
M  V30 7 C 1.67461 -1.23091 -2.05439 0
M  V30 8 C 3.01908 -0.938214 -2.06257 0
M  V30 9 C 3.6496 -0.32095 -1.02198 0
M  V30 10 N 5.0394 -0.0253582 -1.04628 0
M  V30 11 C -0.53428 -1.17884 -0.883468 0
M  V30 12 C -1.05386 -2.28201 -1.52164 0
M  V30 13 C -2.41944 -2.56502 -1.4534 0
M  V30 14 C -3.24687 -1.73389 -0.743277 0
M  V30 15 N -4.6437 -2.0388 -0.683621 0
M  V30 16 C -2.75249 -0.610167 -0.0868114 0
M  V30 17 O -3.65368 0.158752 0.595951 0
M  V30 18 C -3.39306 1.32166 1.31826 0
M  V30 19 C -2.81515 2.42941 0.495712 0
M  V30 20 C -1.39607 -0.36176 -0.176201 0
M  V30 21 H 2.26909 3.08957 2.45494 0
M  V30 22 H 1.01526 1.79836 2.56697 0
M  V30 23 H 1.75493 2.27124 0.963619 0
M  V30 24 H 3.73267 1.46942 3.01228 0
M  V30 25 H 2.53484 0.147613 2.77023 0
M  V30 26 H 0.962397 -0.0111641 0.970527 0
M  V30 27 H 1.19503 -1.72959 -2.90987 0
M  V30 28 H 3.62171 -1.20261 -2.92713 0
M  V30 29 H 5.57832 -0.0783258 -0.163636 0
M  V30 30 H 5.51135 0.236659 -1.91639 0
M  V30 31 H -0.416025 -2.94799 -2.08581 0
M  V30 32 H -2.79061 -3.44232 -1.96873 0
M  V30 33 H -4.9718 -2.57145 0.15715 0
M  V30 34 H -5.30857 -1.75512 -1.42449 0
M  V30 35 H -2.7095 1.03042 2.16374 0
M  V30 36 H -4.30288 1.7194 1.83167 0
M  V30 37 H -3.54241 3.27615 0.365332 0
M  V30 38 H -1.89117 2.77983 0.991521 0
M  V30 39 H -2.5487 2.1179 -0.532267 0
M  V30 40 H -0.989861 0.516073 0.336933 0
M  V30 END ATOM
M  V30 BEGIN BOND
M  V30 1 1 1 2
M  V30 2 1 2 3
M  V30 3 1 3 4
M  V30 4 2 4 5
M  V30 5 1 5 6
M  V30 6 2 6 7
M  V30 7 1 7 8
M  V30 8 2 8 9
M  V30 9 1 9 10
M  V30 10 1 6 11
M  V30 11 2 11 12
M  V30 12 1 12 13
M  V30 13 2 13 14
M  V30 14 1 14 15
M  V30 15 1 14 16
M  V30 16 1 16 17
M  V30 17 1 17 18
M  V30 18 1 18 19
M  V30 19 2 16 20
M  V30 20 1 9 4
M  V30 21 1 20 11
M  V30 22 1 1 21
M  V30 23 1 1 22
M  V30 24 1 1 23
M  V30 25 1 2 24
M  V30 26 1 2 25
M  V30 27 1 5 26
M  V30 28 1 7 27
M  V30 29 1 8 28
M  V30 30 1 10 29
M  V30 31 1 10 30
M  V30 32 1 12 31
M  V30 33 1 13 32
M  V30 34 1 15 33
M  V30 35 1 15 34
M  V30 36 1 18 35
M  V30 37 1 18 36
M  V30 38 1 19 37
M  V30 39 1 19 38
M  V30 40 1 19 39
M  V30 41 1 20 40
M  V30 END BOND
M  V30 END CTAB
M  END
