
     RDKit          3D

  0  0  0  0  0  0  0  0  0  0999 V3000
M  V30 BEGIN CTAB
M  V30 COUNTS 60 64 0 0 0
M  V30 BEGIN ATOM
M  V30 1 C -5.26055 -5.23282 1.35691 0
M  V30 2 C -5.88308 -3.97214 0.815096 0
M  V30 3 C -4.83114 -2.94654 0.560637 0
M  V30 4 N -5.00452 -1.72338 0.0853815 0
M  V30 5 N -3.82815 -1.06506 -0.0172006 0
M  V30 6 C -2.85766 -1.86824 0.396468 0
M  V30 7 C -3.47791 -3.07661 0.771664 0
M  V30 8 C -1.40562 -1.72735 0.456885 0
M  V30 9 O -0.834496 -2.48862 1.29787 0
M  V30 10 N -0.648806 -0.843907 -0.328903 0
M  V30 11 C 0.727351 -0.617252 -0.349982 0
M  V30 12 C 1.55413 -1.24828 0.550345 0
M  V30 13 C 2.94441 -1.04307 0.541708 0
M  V30 14 C 3.52968 -0.200339 -0.370926 0
M  V30 15 C 2.71301 0.430957 -1.27028 0
M  V30 16 C 1.31909 0.238518 -1.27624 0
M  V30 17 N 0.632171 0.955119 -2.28629 0 CHG=1
M  V30 18 O -0.629157 1.4427 -2.2549 0 CHG=-1
M  V30 19 O 1.24353 1.18584 -3.38842 0
M  V30 20 C 4.97484 -0.0813748 -0.317942 0
M  V30 21 C 5.79204 -1.12358 -0.788629 0
M  V30 22 C 7.14726 -1.05318 -0.783098 0
M  V30 23 C 7.77838 0.067864 -0.305164 0
M  V30 24 C 7.00868 1.10189 0.161589 0
M  V30 25 C 5.60781 1.02903 0.15644 0
M  V30 26 S 4.70008 2.37185 0.796415 0
M  V30 27 N 5.83405 3.57657 1.39643 0
M  V30 28 O 3.93521 3.09733 -0.274508 0
M  V30 29 O 3.80523 1.95805 1.92961 0
M  V30 30 C -3.78117 0.29507 -0.473247 0
M  V30 31 C -3.40859 1.28085 0.436453 0
M  V30 32 C -3.43365 2.58302 -0.0144385 0
M  V30 33 C -3.81086 2.90711 -1.31239 0
M  V30 34 O -3.73704 4.19284 -1.44115 0
M  V30 35 N -3.34524 4.7626 -0.350693 0
M  V30 36 C -3.13906 3.8124 0.577925 0
M  V30 37 N -2.70578 4.00869 1.90403 0
M  V30 38 C -4.17303 1.89832 -2.1848 0
M  V30 39 C -4.1595 0.586306 -1.76935 0
M  V30 40 H -4.42032 -5.54436 0.722823 0
M  V30 41 H -5.01137 -5.07879 2.40903 0
M  V30 42 H -6.04237 -6.03026 1.31611 0
M  V30 43 H -6.58912 -3.56243 1.54624 0
M  V30 44 H -6.4711 -4.19102 -0.111565 0
M  V30 45 H -3.02199 -3.97407 1.15923 0
M  V30 46 H -1.22418 -0.279179 -1.02971 0
M  V30 47 H 1.21841 -1.93544 1.33109 0
M  V30 48 H 3.55737 -1.55971 1.26809 0
M  V30 49 H 3.13176 1.08652 -2.02135 0
M  V30 50 H 5.26997 -1.99914 -1.16186 0
M  V30 51 H 7.74507 -1.88939 -1.15922 0
M  V30 52 H 8.86894 0.160486 -0.285452 0
M  V30 53 H 7.50585 1.99492 0.542585 0
M  V30 54 H 6.4765 3.82333 0.593569 0
M  V30 55 H 5.25118 4.43168 1.55681 0
M  V30 56 H -3.11149 1.05473 1.45099 0
M  V30 57 H -1.76928 4.39344 2.08773 0
M  V30 58 H -3.32915 3.7661 2.68704 0
M  V30 59 H -4.47792 2.07391 -3.2095 0
M  V30 60 H -4.44867 -0.212504 -2.47093 0
M  V30 END ATOM
M  V30 BEGIN BOND
M  V30 1 1 1 2
M  V30 2 1 2 3
M  V30 3 2 3 4
M  V30 4 1 4 5
M  V30 5 1 5 6
M  V30 6 2 6 7
M  V30 7 1 6 8
M  V30 8 2 8 9
M  V30 9 1 8 10
M  V30 10 1 10 11
M  V30 11 2 11 12
M  V30 12 1 12 13
M  V30 13 2 13 14
M  V30 14 1 14 15
M  V30 15 2 15 16
M  V30 16 1 16 17
M  V30 17 1 17 18
M  V30 18 2 17 19
M  V30 19 1 14 20
M  V30 20 2 20 21
M  V30 21 1 21 22
M  V30 22 2 22 23
M  V30 23 1 23 24
M  V30 24 2 24 25
M  V30 25 1 25 26
M  V30 26 1 26 27
M  V30 27 2 26 28
M  V30 28 2 26 29
M  V30 29 1 5 30
M  V30 30 2 30 31
M  V30 31 1 31 32
M  V30 32 2 32 33
M  V30 33 1 33 34
M  V30 34 1 34 35
M  V30 35 2 35 36
M  V30 36 1 36 37
M  V30 37 1 33 38
M  V30 38 2 38 39
M  V30 39 1 7 3
M  V30 40 1 16 11
M  V30 41 1 25 20
M  V30 42 1 39 30
M  V30 43 1 36 32
M  V30 44 1 1 40
M  V30 45 1 1 41
M  V30 46 1 1 42
M  V30 47 1 2 43
M  V30 48 1 2 44
M  V30 49 1 7 45
M  V30 50 1 10 46
M  V30 51 1 12 47
M  V30 52 1 13 48
M  V30 53 1 15 49
M  V30 54 1 21 50
M  V30 55 1 22 51
M  V30 56 1 23 52
M  V30 57 1 24 53
M  V30 58 1 27 54
M  V30 59 1 27 55
M  V30 60 1 31 56
M  V30 61 1 37 57
M  V30 62 1 37 58
M  V30 63 1 38 59
M  V30 64 1 39 60
M  V30 END BOND
M  V30 END CTAB
M  END
