
     RDKit          3D

  0  0  0  0  0  0  0  0  0  0999 V3000
M  V30 BEGIN CTAB
M  V30 COUNTS 48 48 0 0 0
M  V30 BEGIN ATOM
M  V30 1 C -6.61417 0.980406 -0.487925 0
M  V30 2 C -6.05954 0.171753 0.642838 0
M  V30 3 C -4.63858 0.360738 0.924442 0
M  V30 4 C -4.19954 1.15349 1.99495 0
M  V30 5 C -2.90426 1.36416 2.29148 0
M  V30 6 C -1.91049 0.775797 1.51048 0
M  V30 7 C -2.3174 -0.00165507 0.460409 0
M  V30 8 C -3.67717 -0.22623 0.145066 0
M  V30 9 S -4.08714 -1.2282 -1.19476 0
M  V30 10 O -2.79022 -1.84127 -1.73449 0
M  V30 11 O -4.63651 -0.485883 -2.38127 0
M  V30 12 N -5.04002 -2.60659 -0.778621 0
M  V30 13 N -0.56336 1.02248 1.83389 0
M  V30 14 C 0.586627 0.391415 1.35105 0
M  V30 15 O 0.550972 -0.53077 0.522929 0
M  V30 16 C 1.95863 0.808047 1.82216 0
M  V30 17 N 2.98103 0.0536551 1.18211 0
M  V30 18 C 3.22551 0.0731705 -0.209018 0
M  V30 19 O 2.49123 0.814768 -0.956103 0
M  V30 20 C 4.27271 -0.702125 -0.910378 0 CFG=2
M  V30 21 C 5.60299 -0.0128298 -0.757602 0
M  V30 22 C 5.97991 0.0836312 0.690268 0
M  V30 23 C 6.69922 -0.778482 -1.48909 0
M  V30 24 N 3.9256 -0.76956 -2.34595 0
M  V30 25 H -5.87866 1.673 -0.94735 0
M  V30 26 H -7.44117 1.67973 -0.146569 0
M  V30 27 H -7.13648 0.324318 -1.21704 0
M  V30 28 H -6.61201 0.518888 1.57332 0
M  V30 29 H -6.39089 -0.882663 0.553906 0
M  V30 30 H -4.9769 1.62062 2.6152 0
M  V30 31 H -2.60706 1.97394 3.11584 0
M  V30 32 H -1.59904 -0.4706 -0.178704 0
M  V30 33 H -5.0322 -2.83032 0.22099 0
M  V30 34 H -5.95635 -2.51684 -1.22766 0
M  V30 35 H -0.375805 1.80875 2.55214 0
M  V30 36 H 2.12708 1.884 1.55133 0
M  V30 37 H 2.00957 0.732387 2.91317 0
M  V30 38 H 3.58264 -0.565107 1.79012 0
M  V30 39 H 4.35121 -1.72378 -0.485491 0
M  V30 40 H 5.53407 1.0291 -1.14387 0
M  V30 41 H 5.80335 -0.925069 1.14865 0
M  V30 42 H 5.42105 0.828094 1.26735 0
M  V30 43 H 7.07659 0.313732 0.793768 0
M  V30 44 H 6.47427 -1.84421 -1.54411 0
M  V30 45 H 6.77555 -0.283458 -2.49649 0
M  V30 46 H 7.67798 -0.57551 -0.991393 0
M  V30 47 H 3.50417 0.156168 -2.5807 0
M  V30 48 H 4.83297 -0.795094 -2.89891 0
M  V30 END ATOM
M  V30 BEGIN BOND
M  V30 1 1 1 2
M  V30 2 1 2 3
M  V30 3 2 3 4
M  V30 4 1 4 5
M  V30 5 2 5 6
M  V30 6 1 6 7
M  V30 7 2 7 8
M  V30 8 1 8 9
M  V30 9 2 9 10
M  V30 10 2 9 11
M  V30 11 1 9 12
M  V30 12 1 6 13
M  V30 13 1 13 14
M  V30 14 2 14 15
M  V30 15 1 14 16
M  V30 16 1 16 17
M  V30 17 1 17 18
M  V30 18 2 18 19
M  V30 19 1 18 20
M  V30 20 1 20 21
M  V30 21 1 21 22
M  V30 22 1 21 23
M  V30 23 1 20 24
M  V30 24 1 8 3
M  V30 25 1 1 25
M  V30 26 1 1 26
M  V30 27 1 1 27
M  V30 28 1 2 28
M  V30 29 1 2 29
M  V30 30 1 4 30
M  V30 31 1 5 31
M  V30 32 1 7 32
M  V30 33 1 12 33
M  V30 34 1 12 34
M  V30 35 1 13 35
M  V30 36 1 16 36
M  V30 37 1 16 37
M  V30 38 1 17 38
M  V30 39 1 20 39 CFG=1
M  V30 40 1 21 40
M  V30 41 1 22 41
M  V30 42 1 22 42
M  V30 43 1 22 43
M  V30 44 1 23 44
M  V30 45 1 23 45
M  V30 46 1 23 46
M  V30 47 1 24 47
M  V30 48 1 24 48
M  V30 END BOND
M  V30 END CTAB
M  END
