
     RDKit          3D

  0  0  0  0  0  0  0  0  0  0999 V3000
M  V30 BEGIN CTAB
M  V30 COUNTS 53 55 0 0 0
M  V30 BEGIN ATOM
M  V30 1 C -5.1244 -1.93766 2.44753 0
M  V30 2 C -3.81528 -1.67745 1.66803 0
M  V30 3 C -2.76054 -2.13246 2.24998 0
M  V30 4 F -2.9561 -2.81666 3.49877 0
M  V30 5 C -1.39612 -1.883 1.87416 0
M  V30 6 O -0.565826 -2.58385 2.57279 0
M  V30 7 N -0.860408 -1.03164 0.920471 0
M  V30 8 C 0.510301 -0.829456 0.562579 0
M  V30 9 C 1.53678 -1.44469 1.20999 0
M  V30 10 C 2.84485 -1.16031 0.776715 0
M  V30 11 C 3.12903 -0.301991 -0.255565 0
M  V30 12 C 2.09364 0.318259 -0.909885 0
M  V30 13 C 0.816436 0.045222 -0.491498 0
M  V30 14 Cl -0.486043 0.850199 -1.34607 0
M  V30 15 C 4.5287 -0.1191 -0.63027 0
M  V30 16 C 5.15393 -1.19193 -1.2882 0
M  V30 17 C 6.45679 -1.11373 -1.70786 0
M  V30 18 C 7.1482 0.0435674 -1.47188 0
M  V30 19 C 6.53271 1.0821 -0.830912 0
M  V30 20 C 5.20774 1.04335 -0.386523 0
M  V30 21 S 4.51175 2.38149 0.442301 0
M  V30 22 N 5.74514 3.61953 0.618375 0
M  V30 23 O 4.07053 2.05203 1.8486 0
M  V30 24 O 3.39765 3.06327 -0.295614 0
M  V30 25 C -3.9502 -1.11632 0.341865 0
M  V30 26 C -3.55995 -1.8023 -0.821106 0
M  V30 27 C -3.73223 -1.22919 -2.06175 0
M  V30 28 C -4.29201 0.0327191 -2.20029 0
M  V30 29 C -4.68528 0.731974 -1.08541 0
M  V30 30 C -4.5004 0.132636 0.147029 0
M  V30 31 C -5.28037 2.06162 -1.14351 0
M  V30 32 N -5.66325 2.68262 0.0966358 0
M  V30 33 N -5.45137 2.6366 -2.25041 0
M  V30 34 H -5.26298 -1.08315 3.13214 0
M  V30 35 H -5.90951 -2.0551 1.69392 0
M  V30 36 H -5.03979 -2.90564 2.9767 0
M  V30 37 H -1.50373 -0.379661 0.408171 0
M  V30 38 H 1.45434 -2.1387 2.03875 0
M  V30 39 H 3.65923 -1.66568 1.31113 0
M  V30 40 H 2.26208 0.989823 -1.74923 0
M  V30 41 H 4.62393 -2.11249 -1.4823 0
M  V30 42 H 6.96025 -1.92724 -2.21679 0
M  V30 43 H 8.18208 0.166079 -1.78104 0
M  V30 44 H 7.06985 2.01112 -0.635825 0
M  V30 45 H 6.29896 3.41159 1.49071 0
M  V30 46 H 5.29373 4.55629 0.675761 0
M  V30 47 H -3.12971 -2.77135 -0.72308 0
M  V30 48 H -3.44825 -1.71622 -2.98304 0
M  V30 49 H -4.42178 0.469405 -3.17293 0
M  V30 50 H -4.80009 0.660092 1.04037 0
M  V30 51 H -4.96834 2.93592 0.829898 0
M  V30 52 H -6.70171 2.85502 0.192354 0
M  V30 53 H -5.22296 2.29443 -3.17725 0
M  V30 END ATOM
M  V30 BEGIN BOND
M  V30 1 1 1 2
M  V30 2 2 2 3
M  V30 3 1 3 4
M  V30 4 1 3 5
M  V30 5 2 5 6
M  V30 6 1 5 7
M  V30 7 1 7 8
M  V30 8 2 8 9
M  V30 9 1 9 10
M  V30 10 2 10 11
M  V30 11 1 11 12
M  V30 12 2 12 13
M  V30 13 1 13 14
M  V30 14 1 11 15
M  V30 15 2 15 16
M  V30 16 1 16 17
M  V30 17 2 17 18
M  V30 18 1 18 19
M  V30 19 2 19 20
M  V30 20 1 20 21
M  V30 21 1 21 22
M  V30 22 2 21 23
M  V30 23 2 21 24
M  V30 24 1 2 25
M  V30 25 2 25 26
M  V30 26 1 26 27
M  V30 27 2 27 28
M  V30 28 1 28 29
M  V30 29 2 29 30
M  V30 30 1 29 31
M  V30 31 1 31 32
M  V30 32 2 31 33 CFG=2
M  V30 33 1 13 8
M  V30 34 1 20 15
M  V30 35 1 30 25
M  V30 36 1 1 34
M  V30 37 1 1 35
M  V30 38 1 1 36
M  V30 39 1 7 37
M  V30 40 1 9 38
M  V30 41 1 10 39
M  V30 42 1 12 40
M  V30 43 1 16 41
M  V30 44 1 17 42
M  V30 45 1 18 43
M  V30 46 1 19 44
M  V30 47 1 22 45
M  V30 48 1 22 46
M  V30 49 1 26 47
M  V30 50 1 27 48
M  V30 51 1 28 49
M  V30 52 1 30 50
M  V30 53 1 32 51
M  V30 54 1 32 52
M  V30 55 1 33 53
M  V30 END BOND
M  V30 END CTAB
M  END
