
     RDKit          3D

  0  0  0  0  0  0  0  0  0  0999 V3000
M  V30 BEGIN CTAB
M  V30 COUNTS 39 41 0 0 0
M  V30 BEGIN ATOM
M  V30 1 N -5.87549 1.72899 -0.813016 0
M  V30 2 C -5.08664 0.637975 -0.380791 0
M  V30 3 N -5.67215 -0.502728 0.0483227 0
M  V30 4 C -4.87697 -1.53093 0.456552 0
M  V30 5 N -5.43901 -2.74217 0.913047 0
M  V30 6 N -3.54115 -1.3728 0.417399 0
M  V30 7 C -2.91873 -0.254372 -0.00257886 0
M  V30 8 C -3.71999 0.787029 -0.415983 0
M  V30 9 N -1.50231 -0.149906 -0.0195913 0
M  V30 10 C -0.769726 0.348035 1.10919 0
M  V30 11 C 0.677018 0.337111 0.796772 0
M  V30 12 C 1.26695 1.42 0.179708 0
M  V30 13 C 2.62744 1.43702 -0.123998 0
M  V30 14 C 3.43552 0.362245 0.185235 0
M  V30 15 C 2.83976 -0.718412 0.802545 0
M  V30 16 C 1.49476 -0.735387 1.10284 0
M  V30 17 N 4.83526 0.370104 -0.122911 0
M  V30 18 C 5.6085 -0.684067 -0.426375 0
M  V30 19 C 6.90167 -0.25272 -0.657543 0
M  V30 20 C 6.87024 1.11501 -0.478356 0
M  V30 21 N 5.61176 1.43972 -0.159629 0
M  V30 22 C -0.810266 -0.561552 -1.21552 0
M  V30 23 H -6.0441 1.86998 -1.82215 0
M  V30 24 H -6.29076 2.39407 -0.138733 0
M  V30 25 H -5.52572 -3.54953 0.281434 0
M  V30 26 H -5.76294 -2.81153 1.88758 0
M  V30 27 H -3.27609 1.70724 -0.762632 0
M  V30 28 H -0.973116 -0.220398 2.0399 0
M  V30 29 H -1.14038 1.39844 1.29629 0
M  V30 30 H 0.649065 2.28666 -0.0770723 0
M  V30 31 H 3.0907 2.28697 -0.608443 0
M  V30 32 H 3.45019 -1.58259 1.05972 0
M  V30 33 H 1.00917 -1.57571 1.58771 0
M  V30 34 H 5.28076 -1.7222 -0.484771 0
M  V30 35 H 7.77861 -0.802246 -0.920354 0
M  V30 36 H 7.67332 1.83347 -0.565187 0
M  V30 37 H -1.50653 -1.05214 -1.93863 0
M  V30 38 H -0.0048562 -1.30033 -1.03497 0
M  V30 39 H -0.363809 0.361658 -1.65792 0
M  V30 END ATOM
M  V30 BEGIN BOND
M  V30 1 1 1 2
M  V30 2 2 2 3
M  V30 3 1 3 4
M  V30 4 1 4 5
M  V30 5 2 4 6
M  V30 6 1 6 7
M  V30 7 2 7 8
M  V30 8 1 7 9
M  V30 9 1 9 10
M  V30 10 1 10 11
M  V30 11 2 11 12
M  V30 12 1 12 13
M  V30 13 2 13 14
M  V30 14 1 14 15
M  V30 15 2 15 16
M  V30 16 1 14 17
M  V30 17 1 17 18
M  V30 18 2 18 19
M  V30 19 1 19 20
M  V30 20 2 20 21
M  V30 21 1 9 22
M  V30 22 1 8 2
M  V30 23 1 16 11
M  V30 24 1 21 17
M  V30 25 1 1 23
M  V30 26 1 1 24
M  V30 27 1 5 25
M  V30 28 1 5 26
M  V30 29 1 8 27
M  V30 30 1 10 28
M  V30 31 1 10 29
M  V30 32 1 12 30
M  V30 33 1 13 31
M  V30 34 1 15 32
M  V30 35 1 16 33
M  V30 36 1 18 34
M  V30 37 1 19 35
M  V30 38 1 20 36
M  V30 39 1 22 37
M  V30 40 1 22 38
M  V30 41 1 22 39
M  V30 END BOND
M  V30 END CTAB
M  END
