
     RDKit          3D

  0  0  0  0  0  0  0  0  0  0999 V3000
M  V30 BEGIN CTAB
M  V30 COUNTS 36 38 0 0 0
M  V30 BEGIN ATOM
M  V30 1 N -6.69307 -0.0971894 -0.0364967 0
M  V30 2 C -6.26053 1.26471 -0.212605 0
M  V30 3 N -5.01563 1.55806 -0.263559 0
M  V30 4 C -4.04269 0.519346 -0.147792 0
M  V30 5 S -4.26988 -1.16794 0.00338442 0
M  V30 6 C -2.62175 -1.63289 0.043596 0
M  V30 7 C -1.98641 -0.440172 -0.0651764 0
M  V30 8 N -2.72891 0.63299 -0.159417 0
M  V30 9 C -0.506282 -0.338993 -0.0759098 0
M  V30 10 C 0.114655 0.885223 -0.109326 0
M  V30 11 C 1.49456 1.02539 -0.148028 0
M  V30 12 C 2.30151 -0.0838933 -0.153077 0
M  V30 13 C 1.65933 -1.3259 -0.117252 0
M  V30 14 C 0.291666 -1.43936 -0.0800902 0
M  V30 15 N 3.72111 -0.043623 -0.195337 0
M  V30 16 C 4.583 -1.12155 -0.649156 0
M  V30 17 C 5.94602 -0.78338 -0.158076 0
M  V30 18 C 5.84772 0.470148 0.659424 0
M  V30 19 C 4.53379 1.04438 0.191463 0
M  V30 20 O 4.29052 2.26219 0.179484 0
M  V30 21 N -7.23978 2.28063 -0.328037 0
M  V30 22 H -6.9306 -0.704681 -0.825713 0
M  V30 23 H -6.77587 -0.523789 0.935749 0
M  V30 24 H -2.18715 -2.64744 0.132669 0
M  V30 25 H -0.507737 1.78936 -0.105524 0
M  V30 26 H 1.92814 2.00962 -0.175926 0
M  V30 27 H 2.25923 -2.22506 -0.120275 0
M  V30 28 H -0.185612 -2.42243 -0.0531854 0
M  V30 29 H 4.52485 -1.19382 -1.76054 0
M  V30 30 H 4.2733 -2.1111 -0.266441 0
M  V30 31 H 6.63979 -0.616514 -1.02328 0
M  V30 32 H 6.33706 -1.57736 0.510544 0
M  V30 33 H 5.75969 0.228574 1.73755 0
M  V30 34 H 6.67444 1.15895 0.443584 0
M  V30 35 H -6.96373 3.26261 -0.500584 0
M  V30 36 H -8.26475 2.10491 -0.251078 0
M  V30 END ATOM
M  V30 BEGIN BOND
M  V30 1 1 1 2
M  V30 2 2 2 3 CFG=2
M  V30 3 1 3 4
M  V30 4 1 4 5
M  V30 5 1 5 6
M  V30 6 2 6 7
M  V30 7 1 7 8
M  V30 8 1 7 9
M  V30 9 2 9 10
M  V30 10 1 10 11
M  V30 11 2 11 12
M  V30 12 1 12 13
M  V30 13 2 13 14
M  V30 14 1 12 15
M  V30 15 1 15 16
M  V30 16 1 16 17
M  V30 17 1 17 18
M  V30 18 1 18 19
M  V30 19 2 19 20
M  V30 20 1 2 21
M  V30 21 2 8 4
M  V30 22 1 14 9
M  V30 23 1 19 15
M  V30 24 1 1 22
M  V30 25 1 1 23
M  V30 26 1 6 24
M  V30 27 1 10 25
M  V30 28 1 11 26
M  V30 29 1 13 27
M  V30 30 1 14 28
M  V30 31 1 16 29
M  V30 32 1 16 30
M  V30 33 1 17 31
M  V30 34 1 17 32
M  V30 35 1 18 33
M  V30 36 1 18 34
M  V30 37 1 21 35
M  V30 38 1 21 36
M  V30 END BOND
M  V30 END CTAB
M  END
