
     RDKit          3D

  0  0  0  0  0  0  0  0  0  0999 V3000
M  V30 BEGIN CTAB
M  V30 COUNTS 19 19 0 0 0
M  V30 BEGIN ATOM
M  V30 1 N 3.55383 0.999173 -0.835502 0
M  V30 2 N 2.16213 0.852864 -0.649518 0
M  V30 3 C 1.61857 -0.278299 -0.00419989 0
M  V30 4 O 2.42214 -1.15239 0.3995 0
M  V30 5 C 0.19277 -0.451572 0.198842 0
M  V30 6 C -0.736516 0.473216 -0.222055 0
M  V30 7 C -2.08609 0.272275 -0.0101269 0
M  V30 8 N -3.03424 1.22912 -0.446648 0
M  V30 9 N -2.52175 -0.832257 0.612587 0
M  V30 10 C -1.66924 -1.77167 1.04724 0
M  V30 11 C -0.327816 -1.57174 0.836487 0
M  V30 12 Cl -2.30347 -3.19086 1.85312 0
M  V30 13 H 3.95475 0.0598175 -0.971429 0
M  V30 14 H 3.96966 1.50218 -0.0189175 0
M  V30 15 H 1.57528 1.64081 -1.02415 0
M  V30 16 H -0.395577 1.38356 -0.733868 0
M  V30 17 H -2.79612 2.25448 -0.451125 0
M  V30 18 H -3.9562 0.894105 -0.757025 0
M  V30 19 H 0.377904 -2.3128 1.17679 0
M  V30 END ATOM
M  V30 BEGIN BOND
M  V30 1 1 1 2
M  V30 2 1 2 3
M  V30 3 2 3 4
M  V30 4 1 3 5
M  V30 5 2 5 6
M  V30 6 1 6 7
M  V30 7 1 7 8
M  V30 8 2 7 9
M  V30 9 1 9 10
M  V30 10 2 10 11
M  V30 11 1 10 12
M  V30 12 1 11 5
M  V30 13 1 1 13
M  V30 14 1 1 14
M  V30 15 1 2 15
M  V30 16 1 6 16
M  V30 17 1 8 17
M  V30 18 1 8 18
M  V30 19 1 11 19
M  V30 END BOND
M  V30 END CTAB
M  END
