
     RDKit          3D

  0  0  0  0  0  0  0  0  0  0999 V3000
M  V30 BEGIN CTAB
M  V30 COUNTS 35 37 0 0 0
M  V30 BEGIN ATOM
M  V30 1 O 1.19468 -1.29889 -0.449168 0
M  V30 2 C 0.627821 -0.27578 0.0330419 0
M  V30 3 C -0.555906 -0.466624 0.876127 0
M  V30 4 C -1.8051 -0.616752 0.0173975 0
M  V30 5 C -1.73227 -0.952486 -1.31431 0
M  V30 6 S -3.39137 -0.948593 -1.7574 0
M  V30 7 C -4.04413 -0.525959 -0.225255 0
M  V30 8 N -2.98035 -0.414037 0.521701 0
M  V30 9 C -5.46735 -0.323573 0.144392 0
M  V30 10 C -6.54965 -0.393292 -0.718998 0
M  V30 11 C -7.75353 -0.191083 -0.172378 0
M  V30 12 C -7.81217 0.0654688 1.17634 0
M  V30 13 S -6.17277 0.0100017 1.63245 0
M  V30 14 O 1.16209 0.95492 -0.266327 0
M  V30 15 C 2.30889 1.22048 -1.02943 0
M  V30 16 C 3.53526 0.770627 -0.354881 0
M  V30 17 N 4.24558 1.77018 0.258589 0
M  V30 18 C 5.36844 1.49223 0.90869 0
M  V30 19 N 6.11893 2.53659 1.54928 0
M  V30 20 N 5.82453 0.223561 0.972128 0
M  V30 21 C 5.13892 -0.764793 0.372876 0
M  V30 22 N 3.99824 -0.469542 -0.285528 0
M  V30 23 N 5.61097 -2.09639 0.435984 0
M  V30 24 H -0.454151 -1.45087 1.39426 0
M  V30 25 H -0.656474 0.339763 1.60088 0
M  V30 26 H -0.842333 -1.16215 -1.92243 0
M  V30 27 H -6.39159 -0.590818 -1.79257 0
M  V30 28 H -8.70985 -0.210138 -0.747497 0
M  V30 29 H -8.72302 0.257018 1.78103 0
M  V30 30 H 2.27128 0.654668 -2.0144 0
M  V30 31 H 2.32536 2.31242 -1.2631 0
M  V30 32 H 5.82972 2.84475 2.50151 0
M  V30 33 H 6.90814 2.93144 1.01844 0
M  V30 34 H 5.39199 -2.72018 1.27584 0
M  V30 35 H 6.18118 -2.51217 -0.313335 0
M  V30 END ATOM
M  V30 BEGIN BOND
M  V30 1 2 1 2
M  V30 2 1 2 3
M  V30 3 1 3 4
M  V30 4 2 4 5
M  V30 5 1 5 6
M  V30 6 1 6 7
M  V30 7 2 7 8
M  V30 8 1 7 9
M  V30 9 2 9 10
M  V30 10 1 10 11
M  V30 11 2 11 12
M  V30 12 1 12 13
M  V30 13 1 2 14
M  V30 14 1 14 15
M  V30 15 1 15 16
M  V30 16 2 16 17
M  V30 17 1 17 18
M  V30 18 1 18 19
M  V30 19 2 18 20
M  V30 20 1 20 21
M  V30 21 2 21 22
M  V30 22 1 21 23
M  V30 23 1 8 4
M  V30 24 1 13 9
M  V30 25 1 22 16
M  V30 26 1 3 24
M  V30 27 1 3 25
M  V30 28 1 5 26
M  V30 29 1 10 27
M  V30 30 1 11 28
M  V30 31 1 12 29
M  V30 32 1 15 30
M  V30 33 1 15 31
M  V30 34 1 19 32
M  V30 35 1 19 33
M  V30 36 1 23 34
M  V30 37 1 23 35
M  V30 END BOND
M  V30 END CTAB
M  END
