
     RDKit          3D

  0  0  0  0  0  0  0  0  0  0999 V3000
M  V30 BEGIN CTAB
M  V30 COUNTS 19 19 0 0 0
M  V30 BEGIN ATOM
M  V30 1 N -3.06613 0.24364 -0.42646 0
M  V30 2 C -2.23842 -0.757287 0.168357 0
M  V30 3 C -0.801388 -0.387023 0.0824707 0
M  V30 4 C -0.382615 0.782291 -0.506093 0
M  V30 5 C 0.961855 1.12075 -0.582215 0
M  V30 6 Cl 1.48898 2.61487 -1.33488 0
M  V30 7 C 1.94142 0.293743 -0.0676603 0
M  V30 8 N 3.30872 0.658144 -0.155803 0
M  V30 9 C 1.50741 -0.877471 0.520744 0
M  V30 10 Cl 2.73112 -1.94184 1.18012 0
M  V30 11 C 0.170396 -1.21602 0.597482 0
M  V30 12 H -4.06997 -0.0355702 -0.234135 0
M  V30 13 H -2.93169 1.1723 -0.000998106 0
M  V30 14 H -2.53794 -0.828811 1.25386 0
M  V30 15 H -2.45574 -1.74936 -0.261263 0
M  V30 16 H -1.1249 1.44799 -0.916736 0
M  V30 17 H 3.8086 0.687083 -1.06561 0
M  V30 18 H 3.85762 0.908991 0.688674 0
M  V30 19 H -0.167327 -2.13644 1.06015 0
M  V30 END ATOM
M  V30 BEGIN BOND
M  V30 1 1 1 2
M  V30 2 1 2 3
M  V30 3 2 3 4
M  V30 4 1 4 5
M  V30 5 1 5 6
M  V30 6 2 5 7
M  V30 7 1 7 8
M  V30 8 1 7 9
M  V30 9 1 9 10
M  V30 10 2 9 11
M  V30 11 1 11 3
M  V30 12 1 1 12
M  V30 13 1 1 13
M  V30 14 1 2 14
M  V30 15 1 2 15
M  V30 16 1 4 16
M  V30 17 1 8 17
M  V30 18 1 8 18
M  V30 19 1 11 19
M  V30 END BOND
M  V30 END CTAB
M  END
