
     RDKit          3D

  0  0  0  0  0  0  0  0  0  0999 V3000
M  V30 BEGIN CTAB
M  V30 COUNTS 33 36 0 0 0
M  V30 BEGIN ATOM
M  V30 1 N -5.34481 -2.40331 -0.419492 0
M  V30 2 C -4.35461 -1.42839 -0.177358 0
M  V30 3 N -4.54608 -0.200807 -0.717121 0
M  V30 4 C -3.63943 0.76409 -0.520564 0
M  V30 5 N -3.84166 2.04555 -1.08541 0
M  V30 6 C -2.50827 0.530827 0.224915 0
M  V30 7 N -1.43868 1.27575 0.593746 0
M  V30 8 C -0.588363 0.554633 1.34413 0
M  V30 9 C 0.696382 1.05072 1.92598 0
M  V30 10 C 1.80043 0.81729 0.972863 0
M  V30 11 C 2.47988 -0.375887 1.05029 0
M  V30 12 C 3.5256 -0.650906 0.181645 0
M  V30 13 C 3.87914 0.287924 -0.764789 0
M  V30 14 O 4.93353 -0.256005 -1.47186 0
M  V30 15 C 5.35167 -1.46048 -0.84859 0
M  V30 16 O 4.33419 -1.77093 0.0839487 0
M  V30 17 C 3.1894 1.47664 -0.829153 0
M  V30 18 C 2.14342 1.76032 0.0342653 0
M  V30 19 N -1.14086 -0.667003 1.44491 0
M  V30 20 C -2.30695 -0.723211 0.779669 0
M  V30 21 N -3.24682 -1.66131 0.554278 0
M  V30 22 H -5.72985 -2.93898 0.373195 0
M  V30 23 H -5.67897 -2.57787 -1.37603 0
M  V30 24 H -4.22276 2.19862 -2.05709 0
M  V30 25 H -3.5936 2.87337 -0.490983 0
M  V30 26 H 0.944287 0.527703 2.8732 0
M  V30 27 H 0.545792 2.14225 2.12028 0
M  V30 28 H 2.19907 -1.11899 1.80041 0
M  V30 29 H 5.4925 -2.27767 -1.57595 0
M  V30 30 H 6.28334 -1.23863 -0.269046 0
M  V30 31 H 3.48128 2.21382 -1.58656 0
M  V30 32 H 1.62186 2.698 -0.0389619 0
M  V30 33 H -0.72007 -1.46712 1.97054 0
M  V30 END ATOM
M  V30 BEGIN BOND
M  V30 1 1 1 2
M  V30 2 2 2 3
M  V30 3 1 3 4
M  V30 4 1 4 5
M  V30 5 2 4 6
M  V30 6 1 6 7
M  V30 7 2 7 8
M  V30 8 1 8 9
M  V30 9 1 9 10
M  V30 10 2 10 11
M  V30 11 1 11 12
M  V30 12 2 12 13
M  V30 13 1 13 14
M  V30 14 1 14 15
M  V30 15 1 15 16
M  V30 16 1 13 17
M  V30 17 2 17 18
M  V30 18 1 8 19
M  V30 19 1 19 20
M  V30 20 2 20 21
M  V30 21 1 21 2
M  V30 22 1 20 6
M  V30 23 1 18 10
M  V30 24 1 16 12
M  V30 25 1 1 22
M  V30 26 1 1 23
M  V30 27 1 5 24
M  V30 28 1 5 25
M  V30 29 1 9 26
M  V30 30 1 9 27
M  V30 31 1 11 28
M  V30 32 1 15 29
M  V30 33 1 15 30
M  V30 34 1 17 31
M  V30 35 1 18 32
M  V30 36 1 19 33
M  V30 END BOND
M  V30 END CTAB
M  END
