
     RDKit          3D

  0  0  0  0  0  0  0  0  0  0999 V3000
M  V30 BEGIN CTAB
M  V30 COUNTS 33 34 0 0 0
M  V30 BEGIN ATOM
M  V30 1 N -4.09051 -1.20365 0.309353 0
M  V30 2 C -3.35743 -0.155376 0.96642 0
M  V30 3 C -2.24738 0.306164 0.117716 0
M  V30 4 C -2.15874 1.63281 -0.334605 0
M  V30 5 C -3.19705 2.66832 -0.0830625 0
M  V30 6 N -1.07013 1.74187 -1.00359 0
M  V30 7 N -0.401451 0.578772 -1.04073 0
M  V30 8 C -1.11647 -0.303292 -0.372356 0
M  V30 9 C -0.726558 -1.73423 -0.126578 0
M  V30 10 C 0.708785 0.397152 -1.91821 0
M  V30 11 O 0.35885 0.423361 -3.199 0
M  V30 12 C 2.07833 0.205391 -1.76729 0
M  V30 13 N 2.82198 0.219893 -0.527153 0
M  V30 14 N 3.13423 1.26557 0.207685 0
M  V30 15 N 3.99886 1.01572 1.10234 0
M  V30 16 C 4.31944 -0.259586 1.00346 0
M  V30 17 C 3.56415 -0.781634 -0.0319901 0
M  V30 18 N 5.33869 -0.968834 1.77464 0
M  V30 19 H -5.07593 -0.973649 0.197239 0
M  V30 20 H -3.74761 -2.01139 -0.0167035 0
M  V30 21 H -3.96235 0.560998 1.45932 0
M  V30 22 H -2.81743 -0.803999 1.84162 0
M  V30 23 H -2.86397 3.71083 0.0151799 0
M  V30 24 H -3.8619 2.57196 -1.04438 0
M  V30 25 H -3.89193 2.39389 0.730503 0
M  V30 26 H -1.50337 -2.33587 0.299444 0
M  V30 27 H -0.383357 -2.14278 -1.13442 0
M  V30 28 H 0.198611 -1.68956 0.514255 0
M  V30 29 H 2.61602 0.873102 -2.5094 0
M  V30 30 H 2.28625 -0.82645 -2.26705 0
M  V30 31 H 3.61165 -1.82831 -0.334736 0
M  V30 32 H 5.63606 -0.741296 2.7053 0
M  V30 33 H 5.80165 -1.80589 1.2841 0
M  V30 END ATOM
M  V30 BEGIN BOND
M  V30 1 1 1 2
M  V30 2 1 2 3
M  V30 3 1 3 4
M  V30 4 1 4 5
M  V30 5 2 4 6
M  V30 6 1 6 7
M  V30 7 1 7 8
M  V30 8 1 8 9
M  V30 9 1 7 10
M  V30 10 2 10 11
M  V30 11 1 10 12
M  V30 12 1 12 13
M  V30 13 1 13 14
M  V30 14 2 14 15
M  V30 15 1 15 16
M  V30 16 2 16 17
M  V30 17 1 16 18
M  V30 18 2 8 3
M  V30 19 1 17 13
M  V30 20 1 1 19
M  V30 21 1 1 20
M  V30 22 1 2 21
M  V30 23 1 2 22
M  V30 24 1 5 23
M  V30 25 1 5 24
M  V30 26 1 5 25
M  V30 27 1 9 26
M  V30 28 1 9 27
M  V30 29 1 9 28
M  V30 30 1 12 29
M  V30 31 1 12 30
M  V30 32 1 17 31
M  V30 33 1 18 32
M  V30 34 1 18 33
M  V30 END BOND
M  V30 END CTAB
M  END
