
     RDKit          3D

  0  0  0  0  0  0  0  0  0  0999 V3000
M  V30 BEGIN CTAB
M  V30 COUNTS 22 23 0 0 0
M  V30 BEGIN ATOM
M  V30 1 Cl 4.63131 -0.514005 -1.74937 0
M  V30 2 C 3.39287 -0.198464 -0.5579 0
M  V30 3 C 3.7887 0.341119 0.650083 0
M  V30 4 N 2.81801 0.576061 1.5532 0
M  V30 5 C 1.51828 0.304849 1.30924 0
M  V30 6 C 1.0832 -0.233393 0.117538 0
M  V30 7 C 2.06157 -0.483223 -0.825053 0
M  V30 8 C -0.316797 -0.539482 -0.179882 0
M  V30 9 N -0.811172 -1.65691 -0.751604 0
M  V30 10 C -2.14973 -1.55376 -0.852959 0
M  V30 11 N -2.5598 -0.373499 -0.352898 0
M  V30 12 C -1.41577 0.241049 0.0586457 0
M  V30 13 N -1.37111 1.5086 0.649718 0
M  V30 14 N -3.85435 0.124988 -0.266564 0
M  V30 15 H 4.8371 0.562816 0.854128 0
M  V30 16 H 0.809794 0.517135 2.06966 0
M  V30 17 H 1.76685 -0.913089 -1.79422 0
M  V30 18 H -2.84133 -2.28638 -1.26873 0
M  V30 19 H -1.31339 1.56832 1.6864 0
M  V30 20 H -1.39219 2.39257 0.114463 0
M  V30 21 H -4.59849 -0.455308 0.152339 0
M  V30 22 H -4.08358 1.06999 -0.616237 0
M  V30 END ATOM
M  V30 BEGIN BOND
M  V30 1 1 1 2
M  V30 2 2 2 3
M  V30 3 1 3 4
M  V30 4 2 4 5
M  V30 5 1 5 6
M  V30 6 2 6 7
M  V30 7 1 6 8
M  V30 8 1 8 9
M  V30 9 2 9 10
M  V30 10 1 10 11
M  V30 11 1 11 12
M  V30 12 1 12 13
M  V30 13 1 11 14
M  V30 14 1 7 2
M  V30 15 2 12 8
M  V30 16 1 3 15
M  V30 17 1 5 16
M  V30 18 1 7 17
M  V30 19 1 10 18
M  V30 20 1 13 19
M  V30 21 1 13 20
M  V30 22 1 14 21
M  V30 23 1 14 22
M  V30 END BOND
M  V30 END CTAB
M  END
