
     RDKit          3D

  0  0  0  0  0  0  0  0  0  0999 V3000
M  V30 BEGIN CTAB
M  V30 COUNTS 19 19 0 0 0
M  V30 BEGIN ATOM
M  V30 1 N 3.5249 0.739112 -0.985125 0
M  V30 2 N 2.89838 0.152778 0.109821 0
M  V30 3 C 1.49873 -0.114526 0.0708638 0
M  V30 4 N 1.02284 -1.38549 0.0428279 0
M  V30 5 C -0.287326 -1.68954 0.0122593 0
M  V30 6 C -1.23201 -0.686063 0.00852654 0
M  V30 7 C -0.745715 0.605819 0.0352545 0
M  V30 8 N 0.584356 0.863471 0.0652065 0
M  V30 9 N -1.70757 1.67098 0.0239938 0
M  V30 10 C -2.68505 -0.992909 -0.00645507 0
M  V30 11 H 4.53608 0.9658 -0.713322 0
M  V30 12 H 3.10519 1.72315 -1.05665 0
M  V30 13 H 3.48159 -0.0988189 0.963461 0
M  V30 14 H -0.637949 -2.71922 -0.0125708 0
M  V30 15 H -1.65415 2.44974 0.721402 0
M  V30 16 H -2.4585 1.63396 -0.700968 0
M  V30 17 H -3.04211 -1.49276 -0.911139 0
M  V30 18 H -2.94626 -1.58223 0.920142 0
M  V30 19 H -3.25542 -0.043237 0.0910118 0
M  V30 END ATOM
M  V30 BEGIN BOND
M  V30 1 1 1 2
M  V30 2 1 2 3
M  V30 3 2 3 4
M  V30 4 1 4 5
M  V30 5 2 5 6
M  V30 6 1 6 7
M  V30 7 2 7 8
M  V30 8 1 7 9
M  V30 9 1 6 10
M  V30 10 1 8 3
M  V30 11 1 1 11
M  V30 12 1 1 12
M  V30 13 1 2 13
M  V30 14 1 5 14
M  V30 15 1 9 15
M  V30 16 1 9 16
M  V30 17 1 10 17
M  V30 18 1 10 18
M  V30 19 1 10 19
M  V30 END BOND
M  V30 END CTAB
M  END
