
     RDKit          3D

  0  0  0  0  0  0  0  0  0  0999 V3000
M  V30 BEGIN CTAB
M  V30 COUNTS 37 37 0 0 0
M  V30 BEGIN ATOM
M  V30 1 C -3.27213 -2.89153 0.201707 0
M  V30 2 C -4.09741 -1.66629 0.449841 0
M  V30 3 C -3.49482 -0.456723 -0.279442 0
M  V30 4 C -2.12509 -0.277474 0.260558 0
M  V30 5 C -1.2849 0.808595 -0.319675 0
M  V30 6 N 0.00998026 0.853055 0.323832 0
M  V30 7 C 1.21734 0.511279 -0.276191 0
M  V30 8 O 1.19883 0.131103 -1.47386 0
M  V30 9 C 2.47748 0.603373 0.502954 0
M  V30 10 C 2.4895 1.02045 1.81364 0
M  V30 11 S 4.15446 0.935006 2.19464 0
M  V30 12 C 4.72795 0.383045 0.689657 0
M  V30 13 N 3.62722 0.291735 -0.0250338 0
M  V30 14 C 6.15448 0.0859579 0.315099 0
M  V30 15 N 6.24473 -0.35826 -1.04146 0
M  V30 16 C -1.94158 2.10766 -0.480653 0
M  V30 17 N -3.07489 2.08721 -1.37333 0
M  V30 18 H -2.39623 -2.90652 0.881935 0
M  V30 19 H -3.92618 -3.77484 0.34702 0
M  V30 20 H -2.90503 -2.87914 -0.841155 0
M  V30 21 H -4.12856 -1.44622 1.51785 0
M  V30 22 H -5.09419 -1.81216 0.0375738 0
M  V30 23 H -3.4496 -0.617276 -1.36527 0
M  V30 24 H -4.19549 0.383119 -0.047878 0
M  V30 25 H -2.12417 -0.235248 1.3965 0
M  V30 26 H -1.56836 -1.24216 0.0380092 0
M  V30 27 H -1.0368 0.439647 -1.37909 0
M  V30 28 H -0.0131673 1.172 1.31349 0
M  V30 29 H 1.64186 1.32966 2.45168 0
M  V30 30 H 6.76608 0.970593 0.529972 0
M  V30 31 H 6.44638 -0.776561 0.973687 0
M  V30 32 H 5.58783 0.202843 -1.62883 0
M  V30 33 H 7.20298 -0.156275 -1.42852 0
M  V30 34 H -2.27292 2.59269 0.4632 0
M  V30 35 H -1.23803 2.8707 -0.936412 0
M  V30 36 H -3.4702 3.03167 -1.48471 0
M  V30 37 H -2.83734 1.72259 -2.32133 0
M  V30 END ATOM
M  V30 BEGIN BOND
M  V30 1 1 1 2
M  V30 2 1 2 3
M  V30 3 1 3 4
M  V30 4 1 4 5
M  V30 5 1 5 6
M  V30 6 1 6 7
M  V30 7 2 7 8
M  V30 8 1 7 9
M  V30 9 2 9 10
M  V30 10 1 10 11
M  V30 11 1 11 12
M  V30 12 2 12 13
M  V30 13 1 12 14
M  V30 14 1 14 15
M  V30 15 1 5 16
M  V30 16 1 16 17
M  V30 17 1 13 9
M  V30 18 1 1 18
M  V30 19 1 1 19
M  V30 20 1 1 20
M  V30 21 1 2 21
M  V30 22 1 2 22
M  V30 23 1 3 23
M  V30 24 1 3 24
M  V30 25 1 4 25
M  V30 26 1 4 26
M  V30 27 1 5 27
M  V30 28 1 6 28
M  V30 29 1 10 29
M  V30 30 1 14 30
M  V30 31 1 14 31
M  V30 32 1 15 32
M  V30 33 1 15 33
M  V30 34 1 16 34
M  V30 35 1 16 35
M  V30 36 1 17 36
M  V30 37 1 17 37
M  V30 END BOND
M  V30 END CTAB
M  END
