
     RDKit          3D

  0  0  0  0  0  0  0  0  0  0999 V3000
M  V30 BEGIN CTAB
M  V30 COUNTS 32 32 0 0 0
M  V30 BEGIN ATOM
M  V30 1 N -4.66441 0.563704 0.786271 0
M  V30 2 C -3.75319 1.60331 1.17305 0
M  V30 3 C -2.41843 0.962753 1.49324 0
M  V30 4 N -1.95108 0.286098 0.310051 0
M  V30 5 C -0.707145 -0.422686 0.288198 0
M  V30 6 O -0.0388404 -0.427812 1.35221 0
M  V30 7 C -0.209726 -1.12247 -0.913014 0 CFG=1
M  V30 8 N -1.29431 -1.02584 -1.91241 0
M  V30 9 C 0.967016 -0.466053 -1.53499 0
M  V30 10 C 2.16612 -0.325958 -0.722541 0
M  V30 11 C 3.15703 -1.30107 -0.627588 0
M  V30 12 C 4.27719 -1.12777 0.132596 0
M  V30 13 C 4.47277 0.0507858 0.853017 0
M  V30 14 C 3.50633 1.02512 0.772341 0
M  V30 15 C 2.38221 0.826349 -0.00324986 0
M  V30 16 H -4.91936 0.583492 -0.194155 0
M  V30 17 H -4.32513 -0.349848 1.10538 0
M  V30 18 H -4.13192 2.14105 2.05944 0
M  V30 19 H -3.62792 2.28021 0.31074 0
M  V30 20 H -1.68526 1.74893 1.80658 0
M  V30 21 H -2.52361 0.213809 2.30296 0
M  V30 22 H -2.50244 0.282238 -0.590891 0
M  V30 23 H -0.0775338 -2.20563 -0.719978 0
M  V30 24 H -1.111 -0.291457 -2.60985 0
M  V30 25 H -1.56935 -1.94294 -2.2748 0
M  V30 26 H 0.614634 0.528057 -1.92255 0
M  V30 27 H 1.27696 -1.01046 -2.47313 0
M  V30 28 H 2.96724 -2.2035 -1.2032 0
M  V30 29 H 5.0371 -1.89838 0.193764 0
M  V30 30 H 5.36603 0.191029 1.46026 0
M  V30 31 H 3.67755 1.93207 1.33913 0
M  V30 32 H 1.64248 1.6272 -0.0368509 0
M  V30 END ATOM
M  V30 BEGIN BOND
M  V30 1 1 1 2
M  V30 2 1 2 3
M  V30 3 1 3 4
M  V30 4 1 4 5
M  V30 5 2 5 6
M  V30 6 1 5 7
M  V30 7 1 7 8
M  V30 8 1 7 9
M  V30 9 1 9 10
M  V30 10 2 10 11
M  V30 11 1 11 12
M  V30 12 2 12 13
M  V30 13 1 13 14
M  V30 14 2 14 15
M  V30 15 1 15 10
M  V30 16 1 1 16
M  V30 17 1 1 17
M  V30 18 1 2 18
M  V30 19 1 2 19
M  V30 20 1 3 20
M  V30 21 1 3 21
M  V30 22 1 4 22
M  V30 23 1 7 23 CFG=1
M  V30 24 1 8 24
M  V30 25 1 8 25
M  V30 26 1 9 26
M  V30 27 1 9 27
M  V30 28 1 11 28
M  V30 29 1 12 29
M  V30 30 1 13 30
M  V30 31 1 14 31
M  V30 32 1 15 32
M  V30 END BOND
M  V30 END CTAB
M  END
