
     RDKit          3D

  0  0  0  0  0  0  0  0  0  0999 V3000
M  V30 BEGIN CTAB
M  V30 COUNTS 72 74 0 0 0
M  V30 BEGIN ATOM
M  V30 1 N -5.18738 -7.42459 -0.0443185 0
M  V30 2 C -4.70549 -6.12345 0.371315 0
M  V30 3 C -5.46722 -5.07833 -0.413183 0
M  V30 4 N -5.08727 -3.73751 -0.110026 0
M  V30 5 C -3.77746 -3.22282 -0.305203 0
M  V30 6 O -2.84586 -3.91721 -0.767347 0
M  V30 7 C -3.46778 -1.78464 0.0489021 0
M  V30 8 C -2.04216 -1.51836 -0.317615 0
M  V30 9 N -1.63485 -0.144985 0.0266663 0
M  V30 10 C -1.6171 0.0166239 1.44549 0
M  V30 11 C -0.802958 1.07861 2.04425 0
M  V30 12 N 0.641264 0.917625 1.76153 0
M  V30 13 C 1.32554 -0.216763 2.24502 0
M  V30 14 O 0.768074 -1.11849 2.9199 0
M  V30 15 C 2.74193 -0.375305 1.96752 0
M  V30 16 C 3.40171 0.140772 0.879049 0
M  V30 17 C 4.75452 -0.0298624 0.67419 0
M  V30 18 C 5.42088 0.488838 -0.422233 0
M  V30 19 C 6.77529 0.324285 -0.637666 0
M  V30 20 C 7.4456 0.834392 -1.72237 0
M  V30 21 C 8.81192 0.65624 -1.91844 0
M  V30 22 C 9.52541 -0.0635157 -0.984174 0
M  V30 23 C 8.85656 -0.577847 0.106736 0
M  V30 24 C 7.49443 -0.405395 0.311023 0
M  V30 25 C 6.84276 -0.92805 1.408 0
M  V30 26 C 5.47991 -0.751505 1.60489 0
M  V30 27 C 4.83847 -1.27628 2.70118 0
M  V30 28 C 3.4841 -1.10468 2.90522 0
M  V30 29 C -2.38289 0.787623 -0.745529 0
M  V30 30 C -2.1066 2.24586 -0.552844 0
M  V30 31 C -2.97134 3.05753 -1.47826 0
M  V30 32 O -3.77061 2.4685 -2.22261 0
M  V30 33 N -2.88117 4.46795 -1.50163 0
M  V30 34 C -3.7354 5.23273 -2.39337 0
M  V30 35 C -3.44265 6.71431 -2.24549 0
M  V30 36 N -3.69489 7.08961 -0.871562 0
M  V30 37 H -6.03239 -7.32995 -0.634246 0
M  V30 38 H -4.42782 -7.91594 -0.560389 0
M  V30 39 H -3.62632 -6.07568 0.205344 0
M  V30 40 H -4.94954 -5.95977 1.46266 0
M  V30 41 H -5.26837 -5.24602 -1.49439 0
M  V30 42 H -6.54326 -5.23326 -0.215097 0
M  V30 43 H -5.8193 -3.08959 0.280861 0
M  V30 44 H -4.12779 -1.12304 -0.564728 0
M  V30 45 H -3.69323 -1.65795 1.12231 0
M  V30 46 H -1.99647 -1.52001 -1.44948 0
M  V30 47 H -1.32801 -2.23585 0.100038 0
M  V30 48 H -2.68871 0.176793 1.82697 0
M  V30 49 H -1.35494 -0.968127 1.87972 0
M  V30 50 H -0.824276 0.856231 3.18183 0
M  V30 51 H -1.1005 2.10988 2.00042 0
M  V30 52 H 1.14529 1.63297 1.21421 0
M  V30 53 H 2.81884 0.701032 0.164819 0
M  V30 54 H 4.85634 1.0502 -1.14864 0
M  V30 55 H 6.91008 1.38995 -2.44937 0
M  V30 56 H 9.33858 1.05551 -2.77173 0
M  V30 57 H 10.6058 -0.21024 -1.12996 0
M  V30 58 H 9.40776 -1.15471 0.862861 0
M  V30 59 H 7.39701 -1.49594 2.15029 0
M  V30 60 H 5.43912 -1.83586 3.40888 0
M  V30 61 H 2.97308 -1.52058 3.77573 0
M  V30 62 H -3.47223 0.672789 -0.433096 0
M  V30 63 H -2.42804 0.507447 -1.8333 0
M  V30 64 H -2.57477 2.50106 0.458461 0
M  V30 65 H -1.07132 2.55393 -0.533067 0
M  V30 66 H -2.19548 4.98769 -0.879481 0
M  V30 67 H -4.79293 5.10087 -2.06304 0
M  V30 68 H -3.58651 4.91503 -3.43426 0
M  V30 69 H -4.12856 7.26983 -2.9202 0
M  V30 70 H -2.37553 6.92119 -2.48848 0
M  V30 71 H -4.58641 6.65574 -0.560203 0
M  V30 72 H -2.8865 6.79247 -0.299255 0
M  V30 END ATOM
M  V30 BEGIN BOND
M  V30 1 1 1 2
M  V30 2 1 2 3
M  V30 3 1 3 4
M  V30 4 1 4 5
M  V30 5 2 5 6
M  V30 6 1 5 7
M  V30 7 1 7 8
M  V30 8 1 8 9
M  V30 9 1 9 10
M  V30 10 1 10 11
M  V30 11 1 11 12
M  V30 12 1 12 13
M  V30 13 2 13 14
M  V30 14 1 13 15
M  V30 15 2 15 16
M  V30 16 1 16 17
M  V30 17 2 17 18
M  V30 18 1 18 19
M  V30 19 2 19 20
M  V30 20 1 20 21
M  V30 21 2 21 22
M  V30 22 1 22 23
M  V30 23 2 23 24
M  V30 24 1 24 25
M  V30 25 2 25 26
M  V30 26 1 26 27
M  V30 27 2 27 28
M  V30 28 1 9 29
M  V30 29 1 29 30
M  V30 30 1 30 31
M  V30 31 2 31 32
M  V30 32 1 31 33
M  V30 33 1 33 34
M  V30 34 1 34 35
M  V30 35 1 35 36
M  V30 36 1 28 15
M  V30 37 1 26 17
M  V30 38 1 24 19
M  V30 39 1 1 37
M  V30 40 1 1 38
M  V30 41 1 2 39
M  V30 42 1 2 40
M  V30 43 1 3 41
M  V30 44 1 3 42
M  V30 45 1 4 43
M  V30 46 1 7 44
M  V30 47 1 7 45
M  V30 48 1 8 46
M  V30 49 1 8 47
M  V30 50 1 10 48
M  V30 51 1 10 49
M  V30 52 1 11 50
M  V30 53 1 11 51
M  V30 54 1 12 52
M  V30 55 1 16 53
M  V30 56 1 18 54
M  V30 57 1 20 55
M  V30 58 1 21 56
M  V30 59 1 22 57
M  V30 60 1 23 58
M  V30 61 1 25 59
M  V30 62 1 27 60
M  V30 63 1 28 61
M  V30 64 1 29 62
M  V30 65 1 29 63
M  V30 66 1 30 64
M  V30 67 1 30 65
M  V30 68 1 33 66
M  V30 69 1 34 67
M  V30 70 1 34 68
M  V30 71 1 35 69
M  V30 72 1 35 70
M  V30 73 1 36 71
M  V30 74 1 36 72
M  V30 END BOND
M  V30 END CTAB
M  END
