
     RDKit          3D

  0  0  0  0  0  0  0  0  0  0999 V3000
M  V30 BEGIN CTAB
M  V30 COUNTS 108 117 0 0 0
M  V30 BEGIN ATOM
M  V30 1 N 3.05956 2.08756 1.19366 0
M  V30 2 Si 1.62607 1.13927 0.626615 0 VAL=4
M  V30 3 N 0.184923 2.04398 1.01027 0
M  V30 4 Si -1.30369 1.4415 0.310724 0 VAL=4
M  V30 5 N -1.80335 2.50106 -1.04953 0
M  V30 6 O -1.24338 -0.158635 -0.226461 0
M  V30 7 Si -2.83262 -0.658257 -0.644849 0 VAL=4
M  V30 8 O -3.9327 0.630552 -0.71881 0
M  V30 9 Si -4.03849 1.55342 0.692905 0 VAL=4
M  V30 10 O -2.53866 1.53771 1.52658 0
M  V30 11 C -5.40756 1.04498 1.79636 0
M  V30 12 C -5.13481 0.504787 3.03251 0
M  V30 13 C -6.16491 0.109766 3.89248 0
M  V30 14 C -7.47122 0.251979 3.52283 0
M  V30 15 C -7.75364 0.790469 2.29014 0
M  V30 16 C -6.73078 1.17947 1.44372 0
M  V30 17 C -4.32119 3.31769 0.172391 0
M  V30 18 C -3.85276 4.36499 0.962464 0
M  V30 19 C -4.07287 5.66405 0.557886 0
M  V30 20 C -4.74289 5.96899 -0.605709 0
M  V30 21 C -5.20078 4.90781 -1.37729 0
M  V30 22 C -4.98712 3.60597 -0.983867 0
M  V30 23 C -3.44795 -1.92838 0.531087 0
M  V30 24 C -4.7477 -2.36406 0.421845 0
M  V30 25 C -5.24873 -3.32492 1.29428 0
M  V30 26 C -4.4122 -3.82823 2.26854 0
M  V30 27 C -3.10807 -3.40188 2.39067 0
M  V30 28 C -2.64507 -2.44125 1.50059 0
M  V30 29 C -2.7805 -1.44523 -2.30753 0
M  V30 30 C -3.4181 -0.888977 -3.42164 0
M  V30 31 C -3.36742 -1.49076 -4.65098 0
M  V30 32 C -2.6827 -2.66627 -4.82088 0
M  V30 33 C -2.04974 -3.23881 -3.76269 0
M  V30 34 C -2.10505 -2.62745 -2.52849 0
M  V30 35 O 1.84921 0.872494 -1.04847 0
M  V30 36 Si 3.52978 0.511016 -1.23126 0 VAL=4
M  V30 37 O 4.23841 -0.185325 0.101012 0
M  V30 38 Si 3.3061 -0.956266 1.23511 0 VAL=4
M  V30 39 O 1.68972 -0.415609 1.35021 0
M  V30 40 C 4.06312 -0.629305 2.90883 0
M  V30 41 C 3.26979 -0.627785 4.06065 0
M  V30 42 C 3.8551 -0.384038 5.2688 0
M  V30 43 C 5.21198 -0.137957 5.38891 0
M  V30 44 C 5.97953 -0.145756 4.22146 0
M  V30 45 C 5.40358 -0.389961 2.99607 0
M  V30 46 C 3.40752 -2.76979 0.988555 0
M  V30 47 C 2.36507 -3.63439 1.21889 0
M  V30 48 C 2.50426 -5.00571 1.01266 0
M  V30 49 C 3.69674 -5.53409 0.570039 0
M  V30 50 C 4.74449 -4.67545 0.337291 0
M  V30 51 C 4.59165 -3.31068 0.547145 0
M  V30 52 C 3.82697 -0.438592 -2.77498 0
M  V30 53 C 3.07733 -0.258599 -3.91784 0
M  V30 54 C 3.31223 -0.978188 -5.06913 0
M  V30 55 C 4.31434 -1.91205 -5.11925 0
M  V30 56 C 5.08176 -2.11345 -3.98829 0
M  V30 57 C 4.83176 -1.37708 -2.83009 0
M  V30 58 C 4.34715 2.16903 -1.49784 0
M  V30 59 C 5.62991 2.37822 -1.02582 0
M  V30 60 C 6.22382 3.5976 -1.22575 0
M  V30 61 C 5.54216 4.59755 -1.8908 0
M  V30 62 C 4.27488 4.39521 -2.35871 0
M  V30 63 C 3.68341 3.16792 -2.15475 0
M  V30 64 H 3.22581 1.96655 2.20257 0
M  V30 65 H 2.93067 3.09596 1.01327 0
M  V30 66 H 0.142546 2.24052 2.01296 0
M  V30 67 H -1.97419 1.94149 -1.90784 0
M  V30 68 H -1.16575 3.2967 -1.18268 0
M  V30 69 H -4.12549 0.360754 3.3954 0
M  V30 70 H -5.93946 -0.311827 4.85756 0
M  V30 71 H -8.26326 -0.0656358 4.21555 0
M  V30 72 H -8.77713 0.905065 1.99312 0
M  V30 73 H -6.95227 1.60221 0.475805 0
M  V30 74 H -3.32803 4.10951 1.87393 0
M  V30 75 H -3.70616 6.46747 1.17658 0
M  V30 76 H -4.89955 6.996 -0.895758 0
M  V30 77 H -5.72322 5.13956 -2.28444 0
M  V30 78 H -5.34752 2.79572 -1.59149 0
M  V30 79 H -5.42707 -1.99004 -0.329254 0
M  V30 80 H -6.25621 -3.70223 1.25531 0
M  V30 81 H -4.74491 -4.5808 2.97998 0
M  V30 82 H -2.48048 -3.80327 3.1489 0
M  V30 83 H -1.62854 -2.12086 1.6095 0
M  V30 84 H -3.9542 0.0381655 -3.27296 0
M  V30 85 H -3.86272 -1.04889 -5.49299 0
M  V30 86 H -2.66058 -3.12392 -5.81785 0
M  V30 87 H -1.51614 -4.16831 -3.92711 0
M  V30 88 H -1.601 -3.08427 -1.68864 0
M  V30 89 H 2.20942 -0.816962 3.99365 0
M  V30 90 H 3.22563 -0.387431 6.14454 0
M  V30 91 H 5.67973 0.054662 6.33625 0
M  V30 92 H 7.04 0.0441137 4.29424 0
M  V30 93 H 6.00411 -0.39256 2.11153 0
M  V30 94 H 1.41226 -3.21075 1.57276 0
M  V30 95 H 1.65998 -5.66928 1.20346 0
M  V30 96 H 3.80758 -6.62144 0.406297 0
M  V30 97 H 5.67701 -5.11149 -0.011596 0
M  V30 98 H 5.45332 -2.68306 0.346504 0
M  V30 99 H 2.28101 0.494344 -3.85302 0
M  V30 100 H 2.71145 -0.815745 -5.94349 0
M  V30 101 H 4.53484 -2.50598 -6.01413 0
M  V30 102 H 5.86867 -2.85365 -4.04328 0
M  V30 103 H 5.45225 -1.56494 -1.97277 0
M  V30 104 H 6.11552 1.56036 -0.512643 0
M  V30 105 H 7.23417 3.78957 -0.864099 0
M  V30 106 H 6.04447 5.55059 -2.0307 0
M  V30 107 H 3.75469 5.19078 -2.87821 0
M  V30 108 H 2.69308 3.0014 -2.51716 0
M  V30 END ATOM
M  V30 BEGIN BOND
M  V30 1 1 1 2
M  V30 2 1 2 3
M  V30 3 1 3 4
M  V30 4 1 4 5
M  V30 5 1 4 6
M  V30 6 1 6 7
M  V30 7 1 7 8
M  V30 8 1 8 9
M  V30 9 1 9 10
M  V30 10 1 9 11
M  V30 11 2 11 12
M  V30 12 1 12 13
M  V30 13 2 13 14
M  V30 14 1 14 15
M  V30 15 2 15 16
M  V30 16 1 9 17
M  V30 17 2 17 18
M  V30 18 1 18 19
M  V30 19 2 19 20
M  V30 20 1 20 21
M  V30 21 2 21 22
M  V30 22 1 7 23
M  V30 23 2 23 24
M  V30 24 1 24 25
M  V30 25 2 25 26
M  V30 26 1 26 27
M  V30 27 2 27 28
M  V30 28 1 7 29
M  V30 29 2 29 30
M  V30 30 1 30 31
M  V30 31 2 31 32
M  V30 32 1 32 33
M  V30 33 2 33 34
M  V30 34 1 2 35
M  V30 35 1 35 36
M  V30 36 1 36 37
M  V30 37 1 37 38
M  V30 38 1 38 39
M  V30 39 1 38 40
M  V30 40 2 40 41
M  V30 41 1 41 42
M  V30 42 2 42 43
M  V30 43 1 43 44
M  V30 44 2 44 45
M  V30 45 1 38 46
M  V30 46 2 46 47
M  V30 47 1 47 48
M  V30 48 2 48 49
M  V30 49 1 49 50
M  V30 50 2 50 51
M  V30 51 1 36 52
M  V30 52 2 52 53
M  V30 53 1 53 54
M  V30 54 2 54 55
M  V30 55 1 55 56
M  V30 56 2 56 57
M  V30 57 1 36 58
M  V30 58 2 58 59
M  V30 59 1 59 60
M  V30 60 2 60 61
M  V30 61 1 61 62
M  V30 62 2 62 63
M  V30 63 1 39 2
M  V30 64 1 45 40
M  V30 65 1 51 46
M  V30 66 1 57 52
M  V30 67 1 63 58
M  V30 68 1 10 4
M  V30 69 1 16 11
M  V30 70 1 22 17
M  V30 71 1 28 23
M  V30 72 1 34 29
M  V30 73 1 1 64
M  V30 74 1 1 65
M  V30 75 1 3 66
M  V30 76 1 5 67
M  V30 77 1 5 68
M  V30 78 1 12 69
M  V30 79 1 13 70
M  V30 80 1 14 71
M  V30 81 1 15 72
M  V30 82 1 16 73
M  V30 83 1 18 74
M  V30 84 1 19 75
M  V30 85 1 20 76
M  V30 86 1 21 77
M  V30 87 1 22 78
M  V30 88 1 24 79
M  V30 89 1 25 80
M  V30 90 1 26 81
M  V30 91 1 27 82
M  V30 92 1 28 83
M  V30 93 1 30 84
M  V30 94 1 31 85
M  V30 95 1 32 86
M  V30 96 1 33 87
M  V30 97 1 34 88
M  V30 98 1 41 89
M  V30 99 1 42 90
M  V30 100 1 43 91
M  V30 101 1 44 92
M  V30 102 1 45 93
M  V30 103 1 47 94
M  V30 104 1 48 95
M  V30 105 1 49 96
M  V30 106 1 50 97
M  V30 107 1 51 98
M  V30 108 1 53 99
M  V30 109 1 54 100
M  V30 110 1 55 101
M  V30 111 1 56 102
M  V30 112 1 57 103
M  V30 113 1 59 104
M  V30 114 1 60 105
M  V30 115 1 61 106
M  V30 116 1 62 107
M  V30 117 1 63 108
M  V30 END BOND
M  V30 END CTAB
M  END
