
     RDKit          3D

  0  0  0  0  0  0  0  0  0  0999 V3000
M  V30 BEGIN CTAB
M  V30 COUNTS 40 42 0 0 0
M  V30 BEGIN ATOM
M  V30 1 Cl 3.93612 0.964468 -3.87881 0
M  V30 2 C 2.52572 0.685204 -2.88789 0
M  V30 3 C 1.26391 0.735433 -3.46019 0
M  V30 4 C 0.130479 0.516919 -2.69255 0
M  V30 5 C 0.220261 0.244455 -1.34457 0
M  V30 6 C 1.46676 0.189907 -0.75527 0
M  V30 7 C 2.57918 0.410493 -1.53843 0
M  V30 8 C 1.57222 -0.10242 0.693293 0
M  V30 9 C 2.96369 -0.125813 1.16845 0
M  V30 10 C 3.51593 1.05801 1.61904 0
M  V30 11 C 4.81508 1.09575 2.07576 0
M  V30 12 C 5.56456 -0.0521621 2.08239 0
M  V30 13 C 5.0001 -1.22819 1.62929 0
M  V30 14 C 3.72188 -1.29395 1.17364 0
M  V30 15 O -0.938478 0.0245167 -0.576572 0
M  V30 16 C -2.16919 0.0916257 -1.22288 0
M  V30 17 C -3.32384 -0.148774 -0.354219 0
M  V30 18 N -4.55188 -0.101519 -0.903291 0
M  V30 19 C -5.68376 -0.305345 -0.206465 0
M  V30 20 N -6.96257 -0.238905 -0.861944 0
M  V30 21 N -5.58727 -0.568512 1.09826 0
M  V30 22 C -4.36609 -0.620596 1.66901 0
M  V30 23 N -3.2397 -0.415078 0.962552 0
M  V30 24 N -4.31624 -0.903321 3.0566 0
M  V30 25 H 1.21051 0.951003 -4.52204 0
M  V30 26 H -0.819028 0.570302 -3.19899 0
M  V30 27 H 3.58196 0.376578 -1.1128 0
M  V30 28 H 1.08025 -1.07149 0.889733 0
M  V30 29 H 1.02864 0.691418 1.24217 0
M  V30 30 H 2.96743 1.98951 1.63426 0
M  V30 31 H 5.23859 2.03861 2.429 0
M  V30 32 H 6.59534 -0.00555417 2.44842 0
M  V30 33 H 5.58176 -2.1419 1.62941 0
M  V30 34 H 3.23882 -2.18969 0.81019 0
M  V30 35 H -2.27295 1.14544 -1.61758 0
M  V30 36 H -2.20031 -0.542766 -2.15616 0
M  V30 37 H -7.79255 -0.63325 -0.375891 0
M  V30 38 H -7.01327 0.198499 -1.79378 0
M  V30 39 H -3.65285 -1.62921 3.38914 0
M  V30 40 H -4.90921 -0.42201 3.7597 0
M  V30 END ATOM
M  V30 BEGIN BOND
M  V30 1 1 1 2
M  V30 2 2 2 3
M  V30 3 1 3 4
M  V30 4 2 4 5
M  V30 5 1 5 6
M  V30 6 2 6 7
M  V30 7 1 6 8
M  V30 8 1 8 9
M  V30 9 2 9 10
M  V30 10 1 10 11
M  V30 11 2 11 12
M  V30 12 1 12 13
M  V30 13 2 13 14
M  V30 14 1 5 15
M  V30 15 1 15 16
M  V30 16 1 16 17
M  V30 17 2 17 18
M  V30 18 1 18 19
M  V30 19 1 19 20
M  V30 20 2 19 21
M  V30 21 1 21 22
M  V30 22 2 22 23
M  V30 23 1 22 24
M  V30 24 1 7 2
M  V30 25 1 14 9
M  V30 26 1 23 17
M  V30 27 1 3 25
M  V30 28 1 4 26
M  V30 29 1 7 27
M  V30 30 1 8 28
M  V30 31 1 8 29
M  V30 32 1 10 30
M  V30 33 1 11 31
M  V30 34 1 12 32
M  V30 35 1 13 33
M  V30 36 1 14 34
M  V30 37 1 16 35
M  V30 38 1 16 36
M  V30 39 1 20 37
M  V30 40 1 20 38
M  V30 41 1 24 39
M  V30 42 1 24 40
M  V30 END BOND
M  V30 END CTAB
M  END
