
     RDKit          3D

  0  0  0  0  0  0  0  0  0  0999 V3000
M  V30 BEGIN CTAB
M  V30 COUNTS 17 17 0 0 0
M  V30 BEGIN ATOM
M  V30 1 C -2.08744 -1.42483 0.0150718 0
M  V30 2 N -0.749668 -0.852295 0.031218 0
M  V30 3 N 0.412785 -1.44125 0.123482 0
M  V30 4 C 1.42075 -0.547575 0.102359 0
M  V30 5 N 2.82463 -0.768861 0.178452 0
M  V30 6 C 0.860826 0.708881 -0.0121276 0
M  V30 7 C 1.52105 1.98454 -0.075661 0
M  V30 8 N 2.05563 3.0294 -0.108741 0
M  V30 9 C -0.513564 0.470788 -0.0539261 0
M  V30 10 N -1.48285 1.50756 -0.170147 0
M  V30 11 H -2.034 -2.44429 0.457494 0
M  V30 12 H -2.52857 -1.46831 -0.982587 0
M  V30 13 H -2.79224 -0.852751 0.660212 0
M  V30 14 H 3.4154 -0.629288 -0.67227 0
M  V30 15 H 3.31901 -1.06822 1.04518 0
M  V30 16 H -1.508 2.00209 -1.10953 0
M  V30 17 H -2.13375 1.79439 0.571513 0
M  V30 END ATOM
M  V30 BEGIN BOND
M  V30 1 1 1 2
M  V30 2 1 2 3
M  V30 3 2 3 4
M  V30 4 1 4 5
M  V30 5 1 4 6
M  V30 6 1 6 7
M  V30 7 3 7 8
M  V30 8 2 6 9
M  V30 9 1 9 10
M  V30 10 1 9 2
M  V30 11 1 1 11
M  V30 12 1 1 12
M  V30 13 1 1 13
M  V30 14 1 5 14
M  V30 15 1 5 15
M  V30 16 1 10 16
M  V30 17 1 10 17
M  V30 END BOND
M  V30 END CTAB
M  END
