
     RDKit          3D

  0  0  0  0  0  0  0  0  0  0999 V3000
M  V30 BEGIN CTAB
M  V30 COUNTS 26 26 0 0 0
M  V30 BEGIN ATOM
M  V30 1 N -2.31533 -1.24274 0.771732 0
M  V30 2 C -1.39369 -1.54022 -0.25727 0
M  V30 3 C -0.438105 -0.411442 -0.469007 0
M  V30 4 C -1.23102 0.815722 -0.851241 0
M  V30 5 N -1.36064 1.62749 0.360271 0
M  V30 6 C -0.0575276 2.28042 0.552531 0
M  V30 7 C 0.977248 1.18822 0.528756 0
M  V30 8 N 0.398333 -0.135647 0.655639 0
M  V30 9 S 1.67973 -1.25053 0.865178 0
M  V30 10 O 1.23208 -2.6228 1.20023 0
M  V30 11 O 2.5203 -0.744734 2.03036 0
M  V30 12 N 2.73613 -1.21939 -0.518132 0
M  V30 13 H -1.99094 -0.657593 1.54295 0
M  V30 14 H -3.06146 -1.90256 0.953371 0
M  V30 15 H -0.870817 -2.47657 -0.0774034 0
M  V30 16 H -1.96189 -1.67169 -1.21793 0
M  V30 17 H 0.195092 -0.665878 -1.35578 0
M  V30 18 H -2.26188 0.548779 -1.16793 0
M  V30 19 H -0.688722 1.41165 -1.5997 0
M  V30 20 H -2.10481 2.33113 0.147519 0
M  V30 21 H -0.0364852 2.86856 1.49425 0
M  V30 22 H 0.0831892 2.9532 -0.34205 0
M  V30 23 H 1.61916 1.28399 -0.375245 0
M  V30 24 H 1.64959 1.35535 1.41809 0
M  V30 25 H 3.15278 -0.252324 -0.529001 0
M  V30 26 H 3.52969 -1.8704 -0.337158 0
M  V30 END ATOM
M  V30 BEGIN BOND
M  V30 1 1 1 2
M  V30 2 1 2 3
M  V30 3 1 3 4
M  V30 4 1 4 5
M  V30 5 1 5 6
M  V30 6 1 6 7
M  V30 7 1 7 8
M  V30 8 1 8 9
M  V30 9 2 9 10
M  V30 10 2 9 11
M  V30 11 1 9 12
M  V30 12 1 8 3
M  V30 13 1 1 13
M  V30 14 1 1 14
M  V30 15 1 2 15
M  V30 16 1 2 16
M  V30 17 1 3 17
M  V30 18 1 4 18
M  V30 19 1 4 19
M  V30 20 1 5 20
M  V30 21 1 6 21
M  V30 22 1 6 22
M  V30 23 1 7 23
M  V30 24 1 7 24
M  V30 25 1 12 25
M  V30 26 1 12 26
M  V30 END BOND
M  V30 END CTAB
M  END
