
     RDKit          3D

  0  0  0  0  0  0  0  0  0  0999 V3000
M  V30 BEGIN CTAB
M  V30 COUNTS 39 41 0 0 0
M  V30 BEGIN ATOM
M  V30 1 N 6.67378 2.03225 1.00051 0
M  V30 2 C 5.55847 1.21681 0.6566 0
M  V30 3 C 5.72389 -0.11279 0.320854 0
M  V30 4 C 4.65246 -0.91641 -0.0125603 0
M  V30 5 C 3.35275 -0.428991 -0.0275146 0
M  V30 6 C 3.1889 0.89745 0.307237 0
M  V30 7 C 4.27629 1.7141 0.645865 0
M  V30 8 C 2.23358 -1.29278 -0.401767 0
M  V30 9 O 2.49337 -2.25052 -1.22327 0
M  V30 10 C 0.882916 -1.18149 0.0498339 0
M  V30 11 C 0.560657 -0.57288 1.22776 0
M  V30 12 C -0.765038 -0.459354 1.6201 0
M  V30 13 C -1.79824 -0.947436 0.85251 0
M  V30 14 C -1.46308 -1.56647 -0.341853 0
M  V30 15 C -0.137301 -1.68329 -0.742046 0
M  V30 16 N -2.50709 -2.1038 -1.14474 0
M  V30 17 O -3.10934 -0.805289 1.29506 0
M  V30 18 C -4.04433 -0.042705 0.604314 0
M  V30 19 C -5.37332 -0.149347 0.990852 0
M  V30 20 C -6.30287 0.621189 0.292493 0
M  V30 21 C -5.91341 1.45477 -0.74 0
M  V30 22 C -4.58651 1.54075 -1.10186 0
M  V30 23 C -3.65584 0.777708 -0.412389 0
M  V30 24 H 6.54197 3.05273 1.16868 0
M  V30 25 H 7.63726 1.65669 1.0968 0
M  V30 26 H 6.73044 -0.513722 0.325485 0
M  V30 27 H 4.7538 -1.95656 -0.279541 0
M  V30 28 H 2.19601 1.33069 0.301758 0
M  V30 29 H 4.13883 2.74808 0.9062 0
M  V30 30 H 1.33353 -0.176171 1.88416 0
M  V30 31 H -1.0226 0.0335073 2.57123 0
M  V30 32 H 0.0870048 -2.16601 -1.6719 0
M  V30 33 H -2.64621 -1.77626 -2.10331 0
M  V30 34 H -3.11926 -2.82845 -0.739727 0
M  V30 35 H -5.67832 -0.811014 1.81029 0
M  V30 36 H -7.33825 0.573804 0.551906 0
M  V30 37 H -6.67178 2.03023 -1.2501 0
M  V30 38 H -4.26577 2.19465 -1.91469 0
M  V30 39 H -2.61738 0.866321 -0.706808 0
M  V30 END ATOM
M  V30 BEGIN BOND
M  V30 1 1 1 2
M  V30 2 2 2 3
M  V30 3 1 3 4
M  V30 4 2 4 5
M  V30 5 1 5 6
M  V30 6 2 6 7
M  V30 7 1 5 8
M  V30 8 2 8 9
M  V30 9 1 8 10
M  V30 10 2 10 11
M  V30 11 1 11 12
M  V30 12 2 12 13
M  V30 13 1 13 14
M  V30 14 2 14 15
M  V30 15 1 14 16
M  V30 16 1 13 17
M  V30 17 1 17 18
M  V30 18 2 18 19
M  V30 19 1 19 20
M  V30 20 2 20 21
M  V30 21 1 21 22
M  V30 22 2 22 23
M  V30 23 1 7 2
M  V30 24 1 15 10
M  V30 25 1 23 18
M  V30 26 1 1 24
M  V30 27 1 1 25
M  V30 28 1 3 26
M  V30 29 1 4 27
M  V30 30 1 6 28
M  V30 31 1 7 29
M  V30 32 1 11 30
M  V30 33 1 12 31
M  V30 34 1 15 32
M  V30 35 1 16 33
M  V30 36 1 16 34
M  V30 37 1 19 35
M  V30 38 1 20 36
M  V30 39 1 21 37
M  V30 40 1 22 38
M  V30 41 1 23 39
M  V30 END BOND
M  V30 END CTAB
M  END
