
     RDKit          3D

  0  0  0  0  0  0  0  0  0  0999 V3000
M  V30 BEGIN CTAB
M  V30 COUNTS 22 22 0 0 0
M  V30 BEGIN ATOM
M  V30 1 C -1.46009 1.85319 -0.087991 0
M  V30 2 C -0.267024 0.969019 -0.276058 0
M  V30 3 C 0.932866 1.54214 -0.628485 0
M  V30 4 C 2.08201 0.765985 -0.615424 0
M  V30 5 C 2.05576 -0.525531 -0.27609 0
M  V30 6 N 3.2078 -1.27434 -0.0189045 0
M  V30 7 C 0.786241 -1.13045 0.0648409 0
M  V30 8 C -0.35136 -0.342664 0.0629762 0
M  V30 9 C -1.59032 -0.842742 0.70493 0
M  V30 10 N -2.76688 -1.03301 -0.0629835 0
M  V30 11 H -1.69209 1.81388 1.03782 0
M  V30 12 H -1.19269 2.91139 -0.274635 0
M  V30 13 H -2.3965 1.60691 -0.677597 0
M  V30 14 H 0.911896 2.57796 -0.882914 0
M  V30 15 H 3.01642 1.25947 -0.925155 0
M  V30 16 H 3.71112 -1.92458 -0.576023 0
M  V30 17 H 3.64359 -1.02138 0.947411 0
M  V30 18 H 0.834613 -2.15401 0.344653 0
M  V30 19 H -1.72787 -0.629781 1.72598 0
M  V30 20 H -1.32441 -2.05146 0.807544 0
M  V30 21 H -3.56087 -1.14756 0.617508 0
M  V30 22 H -2.85221 -1.22244 -1.01141 0
M  V30 END ATOM
M  V30 BEGIN BOND
M  V30 1 1 1 2
M  V30 2 2 2 3
M  V30 3 1 3 4
M  V30 4 2 4 5
M  V30 5 1 5 6
M  V30 6 1 5 7
M  V30 7 2 7 8
M  V30 8 1 8 9
M  V30 9 1 9 10
M  V30 10 1 8 2
M  V30 11 1 1 11
M  V30 12 1 1 12
M  V30 13 1 1 13
M  V30 14 1 3 14
M  V30 15 1 4 15
M  V30 16 1 6 16
M  V30 17 1 6 17
M  V30 18 1 7 18
M  V30 19 1 9 19
M  V30 20 1 9 20
M  V30 21 1 10 21
M  V30 22 1 10 22
M  V30 END BOND
M  V30 END CTAB
M  END
