
     RDKit          3D

  0  0  0  0  0  0  0  0  0  0999 V3000
M  V30 BEGIN CTAB
M  V30 COUNTS 40 42 0 0 0
M  V30 BEGIN ATOM
M  V30 1 N -6.34976 -1.43343 0.0806843 0
M  V30 2 C -5.06531 -0.808879 0.116167 0
M  V30 3 N -5.04483 0.510048 0.410137 0
M  V30 4 C -3.8745 1.17557 0.464069 0
M  V30 5 N -3.84604 2.57157 0.774644 0
M  V30 6 C -2.72279 0.460098 0.20997 0
M  V30 7 N -1.53525 1.06965 0.250116 0
M  V30 8 C -0.353442 0.416079 0.00749418 0
M  V30 9 C 0.845582 1.29162 0.113239 0
M  V30 10 C 1.50476 1.43777 -1.20013 0
M  V30 11 C 2.97393 1.18175 -1.24865 0
M  V30 12 C 3.67552 0.98705 0.0292976 0
M  V30 13 C 3.81816 -0.371799 0.594847 0
M  V30 14 C 3.26375 -1.53701 -0.111206 0
M  V30 15 C 1.87111 -1.88012 0.450017 0
M  V30 16 C 0.823422 -1.76087 -0.585096 0
M  V30 17 C -0.346329 -0.91812 -0.292535 0
M  V30 18 N -1.57375 -1.52633 -0.328925 0
M  V30 19 C -2.72752 -0.88327 -0.0907613 0
M  V30 20 N -3.92709 -1.49078 -0.129312 0
M  V30 21 H -6.7723 -1.64901 -0.85647 0
M  V30 22 H -6.82466 -1.65444 0.971459 0
M  V30 23 H -4.42472 3.18919 0.164209 0
M  V30 24 H -3.30782 2.9893 1.53753 0
M  V30 25 H 1.49072 0.925132 0.932384 0
M  V30 26 H 0.550062 2.31354 0.509006 0
M  V30 27 H 1.26439 2.48212 -1.58367 0
M  V30 28 H 1.02487 0.816072 -1.99149 0
M  V30 29 H 3.43363 2.09714 -1.75008 0
M  V30 30 H 3.26703 0.381568 -1.96035 0
M  V30 31 H 4.74645 1.35657 -0.12471 0
M  V30 32 H 3.33966 1.74862 0.806679 0
M  V30 33 H 3.37019 -0.341828 1.63887 0
M  V30 34 H 4.8983 -0.62978 0.849998 0
M  V30 35 H 3.12267 -1.45957 -1.19968 0
M  V30 36 H 3.948 -2.44064 -0.0216728 0
M  V30 37 H 1.97125 -2.96124 0.79023 0
M  V30 38 H 1.67828 -1.36124 1.4143 0
M  V30 39 H 0.474003 -2.81213 -0.829231 0
M  V30 40 H 1.34036 -1.47997 -1.55346 0
M  V30 END ATOM
M  V30 BEGIN BOND
M  V30 1 1 1 2
M  V30 2 2 2 3
M  V30 3 1 3 4
M  V30 4 1 4 5
M  V30 5 2 4 6
M  V30 6 1 6 7
M  V30 7 2 7 8
M  V30 8 1 8 9
M  V30 9 1 9 10
M  V30 10 1 10 11
M  V30 11 1 11 12
M  V30 12 1 12 13
M  V30 13 1 13 14
M  V30 14 1 14 15
M  V30 15 1 15 16
M  V30 16 1 16 17
M  V30 17 2 17 18
M  V30 18 1 18 19
M  V30 19 2 19 20
M  V30 20 1 20 2
M  V30 21 1 19 6
M  V30 22 1 17 8
M  V30 23 1 1 21
M  V30 24 1 1 22
M  V30 25 1 5 23
M  V30 26 1 5 24
M  V30 27 1 9 25
M  V30 28 1 9 26
M  V30 29 1 10 27
M  V30 30 1 10 28
M  V30 31 1 11 29
M  V30 32 1 11 30
M  V30 33 1 12 31
M  V30 34 1 12 32
M  V30 35 1 13 33
M  V30 36 1 13 34
M  V30 37 1 14 35
M  V30 38 1 14 36
M  V30 39 1 15 37
M  V30 40 1 15 38
M  V30 41 1 16 39
M  V30 42 1 16 40
M  V30 END BOND
M  V30 END CTAB
M  END
