
     RDKit          3D

  0  0  0  0  0  0  0  0  0  0999 V3000
M  V30 BEGIN CTAB
M  V30 COUNTS 44 45 0 0 0
M  V30 BEGIN ATOM
M  V30 1 N 5.01184 -1.9737 0.817093 0
M  V30 2 C 6.27359 -1.42328 0.536131 0
M  V30 3 N 6.38312 -0.253007 0.051553 0
M  V30 4 C 5.24422 0.553742 -0.229276 0
M  V30 5 S 5.10442 2.12878 -0.868851 0
M  V30 6 C 3.38683 2.26586 -0.849693 0
M  V30 7 C 3.03264 1.04692 -0.334571 0
M  V30 8 N 3.98211 0.217838 -0.036265 0
M  V30 9 C 1.6029 0.70579 -0.126469 0
M  V30 10 C 1.18815 0.134807 1.05173 0
M  V30 11 C -0.128897 -0.175764 1.22328 0
M  V30 12 C -1.11875 0.0575835 0.243277 0
M  V30 13 C -0.659222 0.624575 -0.906987 0
M  V30 14 C 0.678697 0.951777 -1.10893 0
M  V30 15 N -2.45763 -0.313806 0.528686 0
M  V30 16 C -3.55147 -0.0275702 -0.296372 0
M  V30 17 O -3.542 0.576975 -1.37412 0
M  V30 18 C -4.93103 -0.495747 0.144935 0
M  V30 19 C -4.94744 -1.99834 0.283604 0
M  V30 20 C -5.21192 0.069327 1.53906 0
M  V30 21 C -5.9883 -0.0622445 -0.839071 0
M  V30 22 C 2.51764 3.41307 -1.27802 0
M  V30 23 N 7.43523 -2.18321 0.796774 0
M  V30 24 H 4.57023 -1.90306 1.7528 0
M  V30 25 H 4.49489 -2.47194 0.0648398 0
M  V30 26 H 1.93103 -0.048528 1.80671 0
M  V30 27 H -0.430719 -0.625897 2.16331 0
M  V30 28 H -1.32556 0.839476 -1.71846 0
M  V30 29 H 0.964836 1.40503 -2.0707 0
M  V30 30 H -2.63505 -0.847359 1.43243 0
M  V30 31 H -4.33694 -2.49409 -0.513842 0
M  V30 32 H -6.01021 -2.31801 0.0794231 0
M  V30 33 H -4.6724 -2.33472 1.29924 0
M  V30 34 H -4.27359 0.210264 2.08495 0
M  V30 35 H -5.77568 1.03515 1.47044 0
M  V30 36 H -5.83028 -0.651911 2.13334 0
M  V30 37 H -6.76099 0.529551 -0.303915 0
M  V30 38 H -5.56479 0.530908 -1.68639 0
M  V30 39 H -6.50309 -0.970767 -1.26382 0
M  V30 40 H 2.29327 3.37959 -2.36346 0
M  V30 41 H 3.15868 4.32528 -1.13583 0
M  V30 42 H 1.59923 3.46851 -0.690122 0
M  V30 43 H 8.22827 -2.08433 0.0985706 0
M  V30 44 H 7.57415 -2.81349 1.59305 0
M  V30 END ATOM
M  V30 BEGIN BOND
M  V30 1 1 1 2
M  V30 2 2 2 3 CFG=2
M  V30 3 1 3 4
M  V30 4 1 4 5
M  V30 5 1 5 6
M  V30 6 2 6 7
M  V30 7 1 7 8
M  V30 8 1 7 9
M  V30 9 2 9 10
M  V30 10 1 10 11
M  V30 11 2 11 12
M  V30 12 1 12 13
M  V30 13 2 13 14
M  V30 14 1 12 15
M  V30 15 1 15 16
M  V30 16 2 16 17
M  V30 17 1 16 18
M  V30 18 1 18 19
M  V30 19 1 18 20
M  V30 20 1 18 21
M  V30 21 1 6 22
M  V30 22 1 2 23
M  V30 23 2 8 4
M  V30 24 1 14 9
M  V30 25 1 1 24
M  V30 26 1 1 25
M  V30 27 1 10 26
M  V30 28 1 11 27
M  V30 29 1 13 28
M  V30 30 1 14 29
M  V30 31 1 15 30
M  V30 32 1 19 31
M  V30 33 1 19 32
M  V30 34 1 19 33
M  V30 35 1 20 34
M  V30 36 1 20 35
M  V30 37 1 20 36
M  V30 38 1 21 37
M  V30 39 1 21 38
M  V30 40 1 21 39
M  V30 41 1 22 40
M  V30 42 1 22 41
M  V30 43 1 22 42
M  V30 44 1 23 43
M  V30 45 1 23 44
M  V30 END BOND
M  V30 END CTAB
M  END
