
     RDKit          3D

  0  0  0  0  0  0  0  0  0  0999 V3000
M  V30 BEGIN CTAB
M  V30 COUNTS 21 21 0 0 0
M  V30 BEGIN ATOM
M  V30 1 N -3.16008 1.22389 0.819184 0
M  V30 2 C -2.94985 0.195209 -0.175197 0
M  V30 3 C -1.48758 0.110409 -0.56019 0
M  V30 4 C -0.680543 -0.218807 0.674883 0
M  V30 5 C 0.781116 -0.316223 0.354438 0
M  V30 6 C 1.51175 -1.41083 -0.0331148 0
M  V30 7 N 2.7744 -1.24543 -0.255643 0
M  V30 8 C 3.32676 -0.0619484 -0.111422 0
M  V30 9 S 2.00128 0.902306 0.369571 0
M  V30 10 N 4.7091 0.317446 -0.311916 0
M  V30 11 H -2.87521 0.907299 1.78026 0
M  V30 12 H -4.1585 1.51687 0.844481 0
M  V30 13 H -3.57018 0.437827 -1.07016 0
M  V30 14 H -3.24644 -0.782922 0.234899 0
M  V30 15 H -1.17355 1.10666 -0.931442 0
M  V30 16 H -1.35327 -0.603509 -1.36725 0
M  V30 17 H -0.778132 0.608013 1.40738 0
M  V30 18 H -0.984463 -1.14912 1.15132 0
M  V30 19 H 1.01133 -2.39301 -0.144178 0
M  V30 20 H 5.2444 -0.28789 -0.958189 0
M  V30 21 H 5.05768 1.14376 0.189832 0
M  V30 END ATOM
M  V30 BEGIN BOND
M  V30 1 1 1 2
M  V30 2 1 2 3
M  V30 3 1 3 4
M  V30 4 1 4 5
M  V30 5 2 5 6
M  V30 6 1 6 7
M  V30 7 2 7 8
M  V30 8 1 8 9
M  V30 9 1 8 10
M  V30 10 1 9 5
M  V30 11 1 1 11
M  V30 12 1 1 12
M  V30 13 1 2 13
M  V30 14 1 2 14
M  V30 15 1 3 15
M  V30 16 1 3 16
M  V30 17 1 4 17
M  V30 18 1 4 18
M  V30 19 1 6 19
M  V30 20 1 10 20
M  V30 21 1 10 21
M  V30 END BOND
M  V30 END CTAB
M  END
