
     RDKit          3D

  0  0  0  0  0  0  0  0  0  0999 V3000
M  V30 BEGIN CTAB
M  V30 COUNTS 46 49 0 0 0
M  V30 BEGIN ATOM
M  V30 1 N -7.18897 2.20698 -1.2629 0
M  V30 2 C -6.28136 1.36514 -0.488315 0
M  V30 3 C -5.46426 0.409123 -1.33139 0
M  V30 4 C -4.19592 1.14926 -0.902502 0
M  V30 5 C -5.03327 2.11736 -0.0987103 0
M  V30 6 C -3.29534 0.292129 -0.120741 0
M  V30 7 N -3.71565 -0.438438 0.941577 0
M  V30 8 C -2.88273 -1.22129 1.6521 0
M  V30 9 N -3.3927 -1.97142 2.769 0
M  V30 10 N -1.58646 -1.28346 1.29844 0
M  V30 11 C -1.07746 -0.589667 0.252988 0
M  V30 12 C -1.97553 0.201741 -0.446621 0
M  V30 13 N 0.292386 -0.667003 -0.10605 0
M  V30 14 C 1.15403 -1.50029 0.658478 0
M  V30 15 C 2.55508 -1.50149 0.193034 0
M  V30 16 O 3.01945 -2.33753 -0.702503 0
M  V30 17 N 4.2872 -2.12065 -0.930324 0
M  V30 18 C 4.69594 -1.09741 -0.158136 0
M  V30 19 N 3.60905 -0.729373 0.528596 0
M  V30 20 C 6.05138 -0.558493 -0.129368 0
M  V30 21 C 6.41158 0.494588 0.685457 0
M  V30 22 C 7.67288 1.0256 0.738487 0
M  V30 23 C 8.6382 0.472192 -0.0723897 0
M  V30 24 C 8.27871 -0.592003 -0.897309 0
M  V30 25 N 7.01435 -1.0785 -0.90984 0
M  V30 26 C 0.748605 0.10625 -1.23409 0
M  V30 27 H -6.8173 2.36918 -2.20489 0
M  V30 28 H -8.13331 1.7501 -1.32149 0
M  V30 29 H -6.76803 0.845819 0.369822 0
M  V30 30 H -5.61309 0.52224 -2.42768 0
M  V30 31 H -5.48529 -0.643592 -1.00171 0
M  V30 32 H -3.68911 1.66531 -1.72316 0
M  V30 33 H -4.8443 2.08815 0.984073 0
M  V30 34 H -4.99077 3.17391 -0.451226 0
M  V30 35 H -3.7386 -1.47045 3.61764 0
M  V30 36 H -3.42659 -3.00718 2.75427 0
M  V30 37 H -1.53817 0.753634 -1.28909 0
M  V30 38 H 1.07502 -1.15281 1.7313 0
M  V30 39 H 0.804187 -2.5546 0.688682 0
M  V30 40 H 5.65797 0.928594 1.32024 0
M  V30 41 H 7.93682 1.86349 1.39433 0
M  V30 42 H 9.64968 0.826597 -0.0932239 0
M  V30 43 H 8.99682 -1.07145 -1.56066 0
M  V30 44 H 1.80163 -0.0492871 -1.4831 0
M  V30 45 H 0.143091 -0.202726 -2.10969 0
M  V30 46 H 0.640176 1.21172 -1.03326 0
M  V30 END ATOM
M  V30 BEGIN BOND
M  V30 1 1 1 2
M  V30 2 1 2 3
M  V30 3 1 3 4
M  V30 4 1 4 5
M  V30 5 1 4 6
M  V30 6 2 6 7
M  V30 7 1 7 8
M  V30 8 1 8 9
M  V30 9 2 8 10
M  V30 10 1 10 11
M  V30 11 2 11 12
M  V30 12 1 11 13
M  V30 13 1 13 14
M  V30 14 1 14 15
M  V30 15 1 15 16
M  V30 16 1 16 17
M  V30 17 2 17 18
M  V30 18 1 18 19
M  V30 19 1 18 20
M  V30 20 2 20 21
M  V30 21 1 21 22
M  V30 22 2 22 23
M  V30 23 1 23 24
M  V30 24 2 24 25
M  V30 25 1 13 26
M  V30 26 1 5 2
M  V30 27 1 12 6
M  V30 28 2 19 15
M  V30 29 1 25 20
M  V30 30 1 1 27
M  V30 31 1 1 28
M  V30 32 1 2 29
M  V30 33 1 3 30
M  V30 34 1 3 31
M  V30 35 1 4 32
M  V30 36 1 5 33
M  V30 37 1 5 34
M  V30 38 1 9 35
M  V30 39 1 9 36
M  V30 40 1 12 37
M  V30 41 1 14 38
M  V30 42 1 14 39
M  V30 43 1 21 40
M  V30 44 1 22 41
M  V30 45 1 23 42
M  V30 46 1 24 43
M  V30 47 1 26 44
M  V30 48 1 26 45
M  V30 49 1 26 46
M  V30 END BOND
M  V30 END CTAB
M  END
