
     RDKit          3D

  0  0  0  0  0  0  0  0  0  0999 V3000
M  V30 BEGIN CTAB
M  V30 COUNTS 43 44 0 0 0
M  V30 BEGIN ATOM
M  V30 1 O -0.785234 1.03161 -3.197 0
M  V30 2 C -1.45767 0.112019 -2.70397 0
M  V30 3 N -1.04374 -0.606918 -1.58955 0
M  V30 4 C 0.161673 -0.366902 -0.896712 0
M  V30 5 C 0.698138 -1.40215 -0.10788 0
M  V30 6 C 1.83404 -1.24824 0.602674 0
M  V30 7 C 2.54263 -0.0661795 0.601663 0
M  V30 8 C 2.03587 0.957744 -0.161948 0
M  V30 9 C 0.862979 0.816633 -0.90238 0
M  V30 10 S 4.01531 0.139825 1.5221 0
M  V30 11 O 3.91543 -0.593482 2.80915 0
M  V30 12 O 4.14514 1.61987 1.81881 0
M  V30 13 N 5.40046 -0.310315 0.598136 0
M  V30 14 C 5.46267 0.565652 -0.560171 0
M  V30 15 C 6.61956 -0.164469 1.34411 0
M  V30 16 C -2.77687 -0.234765 -3.34841 0
M  V30 17 S -3.65778 -1.49311 -2.40667 0
M  V30 18 C -4.19068 -0.811961 -0.865232 0
M  V30 19 N -3.92702 0.467667 -0.55678 0
M  V30 20 C -4.30185 1.03735 0.587162 0
M  V30 21 N -3.99428 2.4102 0.867515 0
M  V30 22 C -4.99562 0.265838 1.4947 0
M  V30 23 C -5.27151 -1.03616 1.19646 0
M  V30 24 N -4.86712 -1.55648 0.0248232 0
M  V30 25 N -5.98641 -1.81635 2.14293 0
M  V30 26 H -1.63597 -1.40381 -1.19252 0
M  V30 27 H 0.173935 -2.34758 -0.0786939 0
M  V30 28 H 2.27284 -2.04648 1.22795 0
M  V30 29 H 2.55245 1.92432 -0.205468 0
M  V30 30 H 0.519549 1.69434 -1.47286 0
M  V30 31 H 4.94023 1.52183 -0.412637 0
M  V30 32 H 4.98561 0.0244139 -1.40374 0
M  V30 33 H 6.52781 0.818707 -0.816566 0
M  V30 34 H 7.37895 -0.853069 0.930079 0
M  V30 35 H 6.49382 -0.385584 2.42536 0
M  V30 36 H 7.00493 0.875232 1.18973 0
M  V30 37 H -3.44162 0.672504 -3.37312 0
M  V30 38 H -2.64606 -0.608065 -4.37198 0
M  V30 39 H -3.6263 2.73221 1.77175 0
M  V30 40 H -4.16635 3.09742 0.0815296 0
M  V30 41 H -5.29105 0.76072 2.42677 0
M  V30 42 H -5.71264 -2.807 2.30514 0
M  V30 43 H -6.76824 -1.38706 2.65574 0
M  V30 END ATOM
M  V30 BEGIN BOND
M  V30 1 2 1 2
M  V30 2 1 2 3
M  V30 3 1 3 4
M  V30 4 2 4 5
M  V30 5 1 5 6
M  V30 6 2 6 7
M  V30 7 1 7 8
M  V30 8 2 8 9
M  V30 9 1 7 10
M  V30 10 2 10 11
M  V30 11 2 10 12
M  V30 12 1 10 13
M  V30 13 1 13 14
M  V30 14 1 13 15
M  V30 15 1 2 16
M  V30 16 1 16 17
M  V30 17 1 17 18
M  V30 18 2 18 19
M  V30 19 1 19 20
M  V30 20 1 20 21
M  V30 21 2 20 22
M  V30 22 1 22 23
M  V30 23 2 23 24
M  V30 24 1 23 25
M  V30 25 1 9 4
M  V30 26 1 24 18
M  V30 27 1 3 26
M  V30 28 1 5 27
M  V30 29 1 6 28
M  V30 30 1 8 29
M  V30 31 1 9 30
M  V30 32 1 14 31
M  V30 33 1 14 32
M  V30 34 1 14 33
M  V30 35 1 15 34
M  V30 36 1 15 35
M  V30 37 1 15 36
M  V30 38 1 16 37
M  V30 39 1 16 38
M  V30 40 1 21 39
M  V30 41 1 21 40
M  V30 42 1 22 41
M  V30 43 1 25 42
M  V30 44 1 25 43
M  V30 END BOND
M  V30 END CTAB
M  END
