
     RDKit          3D

  0  0  0  0  0  0  0  0  0  0999 V3000
M  V30 BEGIN CTAB
M  V30 COUNTS 28 30 0 0 0
M  V30 BEGIN ATOM
M  V30 1 N -2.56269 2.39429 0.0734564 0
M  V30 2 C -2.32127 0.996297 -0.0291893 0
M  V30 3 C -3.39343 0.153279 -0.145758 0
M  V30 4 Cl -5.05759 0.694061 -0.176562 0
M  V30 5 C -3.12953 -1.19893 -0.243665 0
M  V30 6 C -1.83323 -1.68873 -0.225217 0
M  V30 7 C -0.765256 -0.807811 -0.105762 0
M  V30 8 C -1.01255 0.554336 -0.00630183 0
M  V30 9 C 0.124335 1.45793 0.118085 0
M  V30 10 O -0.0618878 2.69566 0.210196 0
M  V30 11 C 1.50982 0.989064 0.142228 0
M  V30 12 C 2.5721 1.86504 0.261031 0
M  V30 13 C 3.84963 1.33935 0.275727 0
M  V30 14 C 4.10983 -0.00643689 0.178169 0
M  V30 15 C 3.03459 -0.865915 0.0601225 0
M  V30 16 C 1.75265 -0.357093 0.0438613 0
M  V30 17 C 0.616574 -1.28116 -0.0821481 0
M  V30 18 O 0.826826 -2.53485 -0.174465 0
M  V30 19 Cl 3.29002 -2.59236 -0.0685507 0
M  V30 20 N -1.57179 -3.0837 -0.326671 0
M  V30 21 H -2.65345 2.80098 1.01797 0
M  V30 22 H -2.65402 3.03514 -0.741925 0
M  V30 23 H -3.94453 -1.90468 -0.33755 0
M  V30 24 H 2.40433 2.93776 0.340573 0
M  V30 25 H 4.69706 1.99909 0.367316 0
M  V30 26 H 5.12191 -0.411463 0.190737 0
M  V30 27 H -1.67145 -3.57947 -1.24586 0
M  V30 28 H -1.277 -3.59968 0.544286 0
M  V30 END ATOM
M  V30 BEGIN BOND
M  V30 1 1 1 2
M  V30 2 2 2 3
M  V30 3 1 3 4
M  V30 4 1 3 5
M  V30 5 2 5 6
M  V30 6 1 6 7
M  V30 7 2 7 8
M  V30 8 1 8 9
M  V30 9 2 9 10
M  V30 10 1 9 11
M  V30 11 2 11 12
M  V30 12 1 12 13
M  V30 13 2 13 14
M  V30 14 1 14 15
M  V30 15 2 15 16
M  V30 16 1 16 17
M  V30 17 2 17 18
M  V30 18 1 15 19
M  V30 19 1 6 20
M  V30 20 1 8 2
M  V30 21 1 16 11
M  V30 22 1 17 7
M  V30 23 1 1 21
M  V30 24 1 1 22
M  V30 25 1 5 23
M  V30 26 1 12 24
M  V30 27 1 13 25
M  V30 28 1 14 26
M  V30 29 1 20 27
M  V30 30 1 20 28
M  V30 END BOND
M  V30 END CTAB
M  END
