
     RDKit          3D

  0  0  0  0  0  0  0  0  0  0999 V3000
M  V30 BEGIN CTAB
M  V30 COUNTS 57 61 0 0 0
M  V30 BEGIN ATOM
M  V30 1 N -1.41602 -1.90665 1.70184 0
M  V30 2 C -1.74467 -1.07558 0.940809 0
M  V30 3 C -2.07772 -0.0586097 0.00178913 0
M  V30 4 C -1.03098 0.650153 -0.628411 0
M  V30 5 N -1.31893 1.5981 -1.52524 0
M  V30 6 C -2.56452 1.92578 -1.87102 0
M  V30 7 C -3.62564 1.25823 -1.2789 0
M  V30 8 C -3.35871 0.256619 -0.332921 0
M  V30 9 C -4.40697 -0.436563 0.284866 0
M  V30 10 C -4.50899 -1.50748 1.28546 0
M  V30 11 C -5.99781 -1.71362 1.43567 0
M  V30 12 O -6.48548 -2.57507 2.22995 0
M  V30 13 N -6.68423 -0.831651 0.588021 0
M  V30 14 C -5.68779 -0.0681093 -0.0986456 0
M  V30 15 N -5.9114 0.897032 -1.00934 0
M  V30 16 C -4.92513 1.56917 -1.60911 0
M  V30 17 N -5.16203 2.58058 -2.56294 0
M  V30 18 C -8.12657 -0.743972 0.463028 0
M  V30 19 N -2.83074 2.93905 -2.8292 0
M  V30 20 N 0.319913 0.375808 -0.306914 0
M  V30 21 C 0.854604 0.664927 0.987712 0
M  V30 22 C 1.97847 -0.279067 1.37333 0
M  V30 23 N 3.00903 -0.221704 0.368551 0
M  V30 24 C 2.65237 0.00603036 -1.01383 0
M  V30 25 C 1.187 -0.207578 -1.29817 0
M  V30 26 C 4.38577 -0.384826 0.67692 0
M  V30 27 C 4.81624 -0.68544 1.95432 0
M  V30 28 C 6.15461 -0.837329 2.23878 0
M  V30 29 C 7.1127 -0.693841 1.25402 0
M  V30 30 C 6.71199 -0.393236 -0.0331261 0
M  V30 31 C 5.36982 -0.245061 -0.298596 0
M  V30 32 O 8.46693 -0.850385 1.55513 0
M  V30 33 C 9.41809 -0.695257 0.518795 0
M  V30 34 H -4.1652 -2.50715 0.928475 0
M  V30 35 H -4.19165 -1.23813 2.30385 0
M  V30 36 H -5.23477 2.35012 -3.56681 0
M  V30 37 H -5.2709 3.55956 -2.25638 0
M  V30 38 H -8.35427 0.032141 -0.295448 0
M  V30 39 H -8.57531 -0.352547 1.42301 0
M  V30 40 H -8.56824 -1.72788 0.199172 0
M  V30 41 H -2.90821 2.71472 -3.83035 0
M  V30 42 H -2.94042 3.91061 -2.50732 0
M  V30 43 H 1.33203 1.67594 0.928154 0
M  V30 44 H 0.117942 0.68774 1.79509 0
M  V30 45 H 2.36091 0.0787969 2.35418 0
M  V30 46 H 1.61396 -1.31483 1.5334 0
M  V30 47 H 3.19037 -0.74372 -1.66482 0
M  V30 48 H 2.93972 0.998498 -1.38969 0
M  V30 49 H 1.01242 -1.28051 -1.46528 0
M  V30 50 H 0.983382 0.304348 -2.28348 0
M  V30 51 H 4.12711 -0.812371 2.76871 0
M  V30 52 H 6.52132 -1.07376 3.23443 0
M  V30 53 H 7.44492 -0.278192 -0.810784 0
M  V30 54 H 5.04761 -0.00806398 -1.30778 0
M  V30 55 H 9.26009 0.320812 0.0866973 0
M  V30 56 H 9.23157 -1.4967 -0.227596 0
M  V30 57 H 10.4524 -0.808167 0.887924 0
M  V30 END ATOM
M  V30 BEGIN BOND
M  V30 1 3 1 2
M  V30 2 1 2 3
M  V30 3 2 3 4
M  V30 4 1 4 5
M  V30 5 2 5 6
M  V30 6 1 6 7
M  V30 7 2 7 8
M  V30 8 1 8 9
M  V30 9 1 9 10
M  V30 10 1 10 11
M  V30 11 2 11 12
M  V30 12 1 11 13
M  V30 13 1 13 14
M  V30 14 1 14 15
M  V30 15 2 15 16
M  V30 16 1 16 17
M  V30 17 1 13 18
M  V30 18 1 6 19
M  V30 19 1 4 20
M  V30 20 1 20 21
M  V30 21 1 21 22
M  V30 22 1 22 23
M  V30 23 1 23 24
M  V30 24 1 24 25
M  V30 25 1 23 26
M  V30 26 2 26 27
M  V30 27 1 27 28
M  V30 28 2 28 29
M  V30 29 1 29 30
M  V30 30 2 30 31
M  V30 31 1 29 32
M  V30 32 1 32 33
M  V30 33 1 8 3
M  V30 34 2 14 9
M  V30 35 1 25 20
M  V30 36 1 31 26
M  V30 37 1 16 7
M  V30 38 1 10 34
M  V30 39 1 10 35
M  V30 40 1 17 36
M  V30 41 1 17 37
M  V30 42 1 18 38
M  V30 43 1 18 39
M  V30 44 1 18 40
M  V30 45 1 19 41
M  V30 46 1 19 42
M  V30 47 1 21 43
M  V30 48 1 21 44
M  V30 49 1 22 45
M  V30 50 1 22 46
M  V30 51 1 24 47
M  V30 52 1 24 48
M  V30 53 1 25 49
M  V30 54 1 25 50
M  V30 55 1 27 51
M  V30 56 1 28 52
M  V30 57 1 30 53
M  V30 58 1 31 54
M  V30 59 1 33 55
M  V30 60 1 33 56
M  V30 61 1 33 57
M  V30 END BOND
M  V30 END CTAB
M  END
