
     RDKit          3D

  0  0  0  0  0  0  0  0  0  0999 V3000
M  V30 BEGIN CTAB
M  V30 COUNTS 37 39 0 0 0
M  V30 BEGIN ATOM
M  V30 1 C 5.58067 1.39069 0.378789 0
M  V30 2 O 4.658 0.455824 0.919161 0
M  V30 3 C 3.39843 0.257319 0.386193 0
M  V30 4 C 2.58388 -0.672971 0.986921 0
M  V30 5 C 1.3036 -0.906597 0.482765 0
M  V30 6 C 0.863058 -0.211077 -0.605431 0
M  V30 7 C 1.65861 0.710547 -1.20751 0
M  V30 8 C 2.93364 0.945729 -0.708383 0
M  V30 9 C -0.493832 -0.494478 -1.10646 0
M  V30 10 C -1.55491 0.252346 -0.443964 0
M  V30 11 C -2.67273 -0.387255 -0.00404387 0
M  V30 12 O -2.88479 -1.77859 -0.152387 0
M  V30 13 C -1.86594 -2.47225 -0.786227 0
M  V30 14 N -2.04461 -3.90759 -0.959953 0
M  V30 15 C -0.770909 -1.91283 -1.2287 0
M  V30 16 C 0.19362 -2.81626 -1.87456 0
M  V30 17 N 0.97411 -3.51503 -2.39133 0
M  V30 18 C -3.6943 0.339209 0.636748 0
M  V30 19 C -3.57522 1.68933 0.82321 0
M  V30 20 N -4.59568 2.40963 1.46236 0
M  V30 21 C -2.43444 2.31482 0.369095 0
M  V30 22 C -1.43969 1.63137 -0.250483 0
M  V30 23 H 5.51658 1.25668 -0.74097 0
M  V30 24 H 6.61771 1.15205 0.646079 0
M  V30 25 H 5.3026 2.42662 0.60202 0
M  V30 26 H 2.90924 -1.23699 1.84996 0
M  V30 27 H 0.699316 -1.66298 1.0065 0
M  V30 28 H 1.3754 1.2978 -2.07231 0
M  V30 29 H 3.57125 1.67886 -1.18436 0
M  V30 30 H -0.491012 -0.0906725 -2.17945 0
M  V30 31 H -2.55094 -4.47106 -0.243544 0
M  V30 32 H -1.6497 -4.32547 -1.81448 0
M  V30 33 H -4.58051 -0.215975 0.976869 0
M  V30 34 H -5.42173 1.93562 1.86619 0
M  V30 35 H -4.56951 3.45365 1.56009 0
M  V30 36 H -2.32372 3.39236 0.510046 0
M  V30 37 H -0.52555 2.08763 -0.624312 0
M  V30 END ATOM
M  V30 BEGIN BOND
M  V30 1 1 1 2
M  V30 2 1 2 3
M  V30 3 2 3 4
M  V30 4 1 4 5
M  V30 5 2 5 6
M  V30 6 1 6 7
M  V30 7 2 7 8
M  V30 8 1 6 9
M  V30 9 1 9 10
M  V30 10 2 10 11
M  V30 11 1 11 12
M  V30 12 1 12 13
M  V30 13 1 13 14
M  V30 14 2 13 15
M  V30 15 1 15 16
M  V30 16 3 16 17
M  V30 17 1 11 18
M  V30 18 2 18 19
M  V30 19 1 19 20
M  V30 20 1 19 21
M  V30 21 2 21 22
M  V30 22 1 8 3
M  V30 23 1 15 9
M  V30 24 1 22 10
M  V30 25 1 1 23
M  V30 26 1 1 24
M  V30 27 1 1 25
M  V30 28 1 4 26
M  V30 29 1 5 27
M  V30 30 1 7 28
M  V30 31 1 8 29
M  V30 32 1 9 30
M  V30 33 1 14 31
M  V30 34 1 14 32
M  V30 35 1 18 33
M  V30 36 1 20 34
M  V30 37 1 20 35
M  V30 38 1 21 36
M  V30 39 1 22 37
M  V30 END BOND
M  V30 END CTAB
M  END
