
     RDKit          3D

  0  0  0  0  0  0  0  0  0  0999 V3000
M  V30 BEGIN CTAB
M  V30 COUNTS 100 103 0 0 0
M  V30 BEGIN ATOM
M  V30 1 N -7.67914 2.39893 4.04164 0
M  V30 2 C -6.45468 2.81607 3.49056 0
M  V30 3 N -5.92878 3.93011 3.82603 0
M  V30 4 N -5.80198 1.94826 2.52798 0
M  V30 5 C -6.23761 2.03413 1.17261 0
M  V30 6 C -5.51722 1.29767 0.1315 0
M  V30 7 C -4.14089 1.65578 -0.235257 0
M  V30 8 C -3.08016 1.55731 0.773506 0 CFG=1
M  V30 9 N -2.80023 0.298096 1.35422 0
M  V30 10 C -3.20727 -1.01255 1.13888 0
M  V30 11 O -4.0207 -1.55226 1.99019 0
M  V30 12 C -2.87351 -1.99421 0.0549279 0 CFG=2
M  V30 13 C -4.17362 -2.30858 -0.741732 0
M  V30 14 C -3.90613 -3.26301 -1.82486 0
M  V30 15 C -4.05705 -4.61685 -1.67532 0
M  V30 16 C -3.78925 -5.51167 -2.70286 0
M  V30 17 C -3.35786 -5.05754 -3.92042 0
M  V30 18 O -3.09173 -5.96272 -4.94389 0
M  V30 19 C -3.19837 -3.69716 -4.09548 0
M  V30 20 C -3.47186 -2.81874 -3.0545 0
M  V30 21 N -2.48352 -3.26806 0.614993 0
M  V30 22 C -1.41346 -4.1153 0.432617 0
M  V30 23 O -1.5107 -5.37085 0.734387 0
M  V30 24 C -0.0392602 -3.805 -0.0979153 0
M  V30 25 N 0.293424 -2.41188 -0.00275842 0
M  V30 26 C 0.956391 -1.66194 0.96566 0
M  V30 27 O 0.322397 -1.12437 1.96065 0
M  V30 28 C 2.39087 -1.30525 1.11477 0 CFG=1
M  V30 29 C 3.32364 -1.98206 0.179317 0
M  V30 30 C 4.74783 -1.61795 0.345547 0
M  V30 31 C 5.57733 -2.31123 1.23694 0
M  V30 32 C 6.91211 -2.00038 1.4012 0
M  V30 33 C 7.73033 -2.6793 2.27727 0
M  V30 34 C 9.06212 -2.32921 2.40586 0
M  V30 35 C 9.62147 -1.30547 1.67833 0
M  V30 36 C 8.81189 -0.627638 0.806523 0
M  V30 37 C 7.46629 -0.973876 0.669788 0
M  V30 38 C 6.68858 -0.258111 -0.224498 0
M  V30 39 C 5.36154 -0.603788 -0.354765 0
M  V30 40 N 2.52329 0.158759 1.13792 0
M  V30 41 C 1.49692 1.11108 1.11605 0
M  V30 42 O 1.40539 1.93221 2.1132 0
M  V30 43 C 0.452422 1.34246 0.0867687 0 CFG=2
M  V30 44 C 1.15535 2.06014 -1.11219 0
M  V30 45 C 1.7383 3.35663 -0.654841 0
M  V30 46 C 2.39837 4.01182 -1.8471 0
M  V30 47 N 2.95246 5.27601 -1.35961 0
M  V30 48 C 3.642 6.13091 -2.26005 0
M  V30 49 N 2.96168 7.04296 -3.10572 0
M  V30 50 N 4.92398 6.06837 -2.30416 0
M  V30 51 N -0.549699 2.28207 0.554054 0
M  V30 52 C -1.91158 2.37475 0.338859 0
M  V30 53 O -2.2923 3.37758 -0.388725 0
M  V30 54 H -8.61437 2.58024 3.60515 0
M  V30 55 H -7.66748 1.86559 4.95823 0
M  V30 56 H -6.32894 4.59677 4.49735 0
M  V30 57 H -5.08937 1.31153 2.90327 0
M  V30 58 H -7.36306 1.79628 1.14672 0
M  V30 59 H -6.27213 3.15925 0.956862 0
M  V30 60 H -5.63498 0.19417 0.365495 0
M  V30 61 H -6.14847 1.39621 -0.81877 0
M  V30 62 H -3.83694 1.21119 -1.23398 0
M  V30 63 H -4.19067 2.77188 -0.523237 0
M  V30 64 H -3.48114 2.2296 1.64171 0
M  V30 65 H -2.10986 0.411926 2.18425 0
M  V30 66 H -2.23765 -1.57982 -0.710307 0
M  V30 67 H -4.85719 -2.72565 0.0346449 0
M  V30 68 H -4.63283 -1.39145 -1.12016 0
M  V30 69 H -4.39161 -5.04854 -0.749825 0
M  V30 70 H -3.92139 -6.57606 -2.54282 0
M  V30 71 H -3.22204 -6.94561 -4.77034 0
M  V30 72 H -2.85678 -3.33563 -5.05131 0
M  V30 73 H -3.32565 -1.77199 -3.259 0
M  V30 74 H -3.18392 -3.65117 1.34581 0
M  V30 75 H -0.0311522 -4.10762 -1.17345 0
M  V30 76 H 0.73322 -4.45794 0.367967 0
M  V30 77 H -0.066725 -1.85051 -0.848486 0
M  V30 78 H 2.68455 -1.70877 2.14199 0
M  V30 79 H 3.26647 -3.08504 0.278209 0
M  V30 80 H 3.01734 -1.77403 -0.888964 0
M  V30 81 H 5.12981 -3.11568 1.80556 0
M  V30 82 H 7.28593 -3.48553 2.8492 0
M  V30 83 H 9.69263 -2.87159 3.09652 0
M  V30 84 H 10.6698 -1.09245 1.83462 0
M  V30 85 H 9.24653 0.181633 0.230821 0
M  V30 86 H 7.1349 0.553565 -0.800017 0
M  V30 87 H 4.77332 -0.0325143 -1.05596 0
M  V30 88 H 3.51617 0.483209 1.1902 0
M  V30 89 H 0.025873 0.473004 -0.383871 0
M  V30 90 H 0.400892 2.2029 -1.8925 0
M  V30 91 H 1.95694 1.38249 -1.41042 0
M  V30 92 H 2.54815 3.17639 0.0907612 0
M  V30 93 H 0.981066 4.07255 -0.278112 0
M  V30 94 H 3.1656 3.33232 -2.23285 0
M  V30 95 H 1.59653 4.25748 -2.5723 0
M  V30 96 H 2.87259 5.5977 -0.374471 0
M  V30 97 H 3.06063 8.0609 -2.96844 0
M  V30 98 H 2.36407 6.69084 -3.86301 0
M  V30 99 H 5.48604 6.66933 -2.94309 0
M  V30 100 H -0.07254 3.03351 1.17427 0
M  V30 END ATOM
M  V30 BEGIN BOND
M  V30 1 1 1 2
M  V30 2 2 2 3 CFG=2
M  V30 3 1 2 4
M  V30 4 1 4 5
M  V30 5 1 5 6
M  V30 6 1 6 7
M  V30 7 1 7 8
M  V30 8 1 8 9
M  V30 9 1 9 10
M  V30 10 2 10 11
M  V30 11 1 10 12
M  V30 12 1 12 13
M  V30 13 1 13 14
M  V30 14 2 14 15
M  V30 15 1 15 16
M  V30 16 2 16 17
M  V30 17 1 17 18
M  V30 18 1 17 19
M  V30 19 2 19 20
M  V30 20 1 12 21
M  V30 21 1 21 22
M  V30 22 2 22 23
M  V30 23 1 22 24
M  V30 24 1 24 25
M  V30 25 1 25 26
M  V30 26 2 26 27
M  V30 27 1 26 28
M  V30 28 1 28 29
M  V30 29 1 29 30
M  V30 30 2 30 31
M  V30 31 1 31 32
M  V30 32 2 32 33
M  V30 33 1 33 34
M  V30 34 2 34 35
M  V30 35 1 35 36
M  V30 36 2 36 37
M  V30 37 1 37 38
M  V30 38 2 38 39
M  V30 39 1 28 40
M  V30 40 1 40 41
M  V30 41 2 41 42
M  V30 42 1 41 43
M  V30 43 1 43 44
M  V30 44 1 44 45
M  V30 45 1 45 46
M  V30 46 1 46 47
M  V30 47 1 47 48
M  V30 48 1 48 49
M  V30 49 2 48 50 CFG=2
M  V30 50 1 43 51
M  V30 51 1 51 52
M  V30 52 2 52 53
M  V30 53 1 52 8
M  V30 54 1 20 14
M  V30 55 1 39 30
M  V30 56 1 37 32
M  V30 57 1 1 54
M  V30 58 1 1 55
M  V30 59 1 3 56
M  V30 60 1 4 57
M  V30 61 1 5 58
M  V30 62 1 5 59
M  V30 63 1 6 60
M  V30 64 1 6 61
M  V30 65 1 7 62
M  V30 66 1 7 63
M  V30 67 1 8 64 CFG=1
M  V30 68 1 9 65
M  V30 69 1 12 66 CFG=3
M  V30 70 1 13 67
M  V30 71 1 13 68
M  V30 72 1 15 69
M  V30 73 1 16 70
M  V30 74 1 18 71
M  V30 75 1 19 72
M  V30 76 1 20 73
M  V30 77 1 21 74
M  V30 78 1 24 75
M  V30 79 1 24 76
M  V30 80 1 25 77
M  V30 81 1 28 78 CFG=1
M  V30 82 1 29 79
M  V30 83 1 29 80
M  V30 84 1 31 81
M  V30 85 1 33 82
M  V30 86 1 34 83
M  V30 87 1 35 84
M  V30 88 1 36 85
M  V30 89 1 38 86
M  V30 90 1 39 87
M  V30 91 1 40 88
M  V30 92 1 43 89 CFG=3
M  V30 93 1 44 90
M  V30 94 1 44 91
M  V30 95 1 45 92
M  V30 96 1 45 93
M  V30 97 1 46 94
M  V30 98 1 46 95
M  V30 99 1 47 96
M  V30 100 1 49 97
M  V30 101 1 49 98
M  V30 102 1 50 99
M  V30 103 1 51 100
M  V30 END BOND
M  V30 END CTAB
M  END
