
     RDKit          3D

  0  0  0  0  0  0  0  0  0  0999 V3000
M  V30 BEGIN CTAB
M  V30 COUNTS 43 45 0 0 0
M  V30 BEGIN ATOM
M  V30 1 N -6.60532 1.78442 0.39834 0
M  V30 2 C -5.57232 0.828753 0.221384 0
M  V30 3 N -5.94305 -0.477005 0.223045 0
M  V30 4 C -5.04813 -1.47059 0.0633365 0
M  V30 5 N -5.42561 -2.83638 0.0751149 0
M  V30 6 N -3.7702 -1.09914 -0.0965209 0
M  V30 7 C -3.33079 0.168478 -0.107878 0
M  V30 8 C -4.23995 1.18291 0.0544652 0
M  V30 9 N -1.95606 0.398719 -0.306395 0
M  V30 10 C -1.33261 -0.0679058 -1.51617 0
M  V30 11 C -0.123202 -0.864279 -1.10555 0
M  V30 12 C 0.852965 0.0621866 -0.425259 0
M  V30 13 C 0.232391 0.657241 0.825828 0
M  V30 14 C -1.19271 1.06165 0.708504 0
M  V30 15 O 2.0336 -0.611883 -0.0876771 0
M  V30 16 C 3.31077 -0.0868218 -0.202726 0
M  V30 17 C 3.57247 1.18991 -0.604951 0
M  V30 18 C 4.87984 1.63784 -0.698188 0
M  V30 19 C 5.93845 0.786616 -0.378034 0
M  V30 20 C 5.65506 -0.494536 0.0255231 0
M  V30 21 C 4.37469 -0.935042 0.114839 0
M  V30 22 C 6.73728 -1.46966 0.383665 0
M  V30 23 F 7.77667 -0.883434 1.04449 0
M  V30 24 F 7.15058 -2.07456 -0.794688 0
M  V30 25 F 6.14884 -2.46059 1.1474 0
M  V30 26 H -6.46199 2.74343 0.77665 0
M  V30 27 H -7.60183 1.55076 0.137731 0
M  V30 28 H -6.20619 -3.198 0.70509 0
M  V30 29 H -4.94781 -3.54221 -0.537611 0
M  V30 30 H -3.96028 2.22665 0.0463666 0
M  V30 31 H -2.00056 -0.743863 -2.10356 0
M  V30 32 H -1.05253 0.744643 -2.20841 0
M  V30 33 H 0.394869 -1.33931 -1.97 0
M  V30 34 H -0.508706 -1.63353 -0.360286 0
M  V30 35 H 1.0446 0.934726 -1.09031 0
M  V30 36 H 0.35073 -0.0601057 1.66249 0
M  V30 37 H 0.831386 1.58365 1.13061 0
M  V30 38 H -1.22997 2.1799 0.511132 0
M  V30 39 H -1.73627 0.939069 1.68976 0
M  V30 40 H 2.7435 1.8905 -0.856038 0
M  V30 41 H 5.09567 2.65223 -1.01968 0
M  V30 42 H 6.96538 1.1187 -0.446327 0
M  V30 43 H 4.15632 -1.97415 0.439819 0
M  V30 END ATOM
M  V30 BEGIN BOND
M  V30 1 1 1 2
M  V30 2 2 2 3
M  V30 3 1 3 4
M  V30 4 1 4 5
M  V30 5 2 4 6
M  V30 6 1 6 7
M  V30 7 2 7 8
M  V30 8 1 7 9
M  V30 9 1 9 10
M  V30 10 1 10 11
M  V30 11 1 11 12
M  V30 12 1 12 13
M  V30 13 1 13 14
M  V30 14 1 12 15
M  V30 15 1 15 16
M  V30 16 2 16 17
M  V30 17 1 17 18
M  V30 18 2 18 19
M  V30 19 1 19 20
M  V30 20 2 20 21
M  V30 21 1 20 22
M  V30 22 1 22 23
M  V30 23 1 22 24
M  V30 24 1 22 25
M  V30 25 1 8 2
M  V30 26 1 14 9
M  V30 27 1 21 16
M  V30 28 1 1 26
M  V30 29 1 1 27
M  V30 30 1 5 28
M  V30 31 1 5 29
M  V30 32 1 8 30
M  V30 33 1 10 31
M  V30 34 1 10 32
M  V30 35 1 11 33
M  V30 36 1 11 34
M  V30 37 1 12 35
M  V30 38 1 13 36
M  V30 39 1 13 37
M  V30 40 1 14 38
M  V30 41 1 14 39
M  V30 42 1 17 40
M  V30 43 1 18 41
M  V30 44 1 19 42
M  V30 45 1 21 43
M  V30 END BOND
M  V30 END CTAB
M  END
