
     RDKit          3D

  0  0  0  0  0  0  0  0  0  0999 V3000
M  V30 BEGIN CTAB
M  V30 COUNTS 48 49 0 0 0
M  V30 BEGIN ATOM
M  V30 1 O 3.53344 -0.816456 -1.46695 0
M  V30 2 C 3.86407 -0.0286511 -0.524449 0
M  V30 3 C 5.27733 -0.00725475 -0.163596 0
M  V30 4 C 5.79617 0.951596 0.69696 0
M  V30 5 C 7.13262 0.922809 1.00921 0
M  V30 6 C 7.96198 -0.0479455 0.476437 0
M  V30 7 C 7.44857 -0.999943 -0.377305 0
M  V30 8 C 6.11622 -0.978186 -0.693606 0
M  V30 9 N 9.32801 -0.0276504 0.831482 0
M  V30 10 N 2.90081 0.760207 0.112271 0
M  V30 11 C 1.52159 0.710631 -0.262939 0
M  V30 12 C 0.952661 -0.655137 -0.0461721 0
M  V30 13 N -0.47804 -0.592605 -0.481604 0
M  V30 14 C -1.02167 -1.91688 -0.339947 0
M  V30 15 C -2.28418 -2.14442 -1.05507 0
M  V30 16 N -3.40023 -1.379 -0.727655 0
M  V30 17 C -3.73456 -0.0241535 -0.825946 0
M  V30 18 O -2.95911 0.815542 -1.29962 0
M  V30 19 C -5.05828 0.477531 -0.363084 0
M  V30 20 C -5.55016 1.67877 -0.858261 0
M  V30 21 C -6.79554 2.16335 -0.448545 0
M  V30 22 C -7.5812 1.46827 0.459348 0
M  V30 23 C -7.0825 0.279753 0.942211 0
M  V30 24 C -5.84 -0.198429 0.532327 0
M  V30 25 N -8.85065 1.98178 0.851414 0
M  V30 26 H 5.14393 1.70051 1.1036 0
M  V30 27 H 7.52825 1.67829 1.68509 0
M  V30 28 H 8.13404 -1.74796 -0.776713 0
M  V30 29 H 5.73531 -1.75294 -1.37943 0
M  V30 30 H 9.95153 -0.832248 0.592622 0
M  V30 31 H 9.75427 0.775883 1.33312 0
M  V30 32 H 3.19912 1.39241 0.872637 0
M  V30 33 H 0.934389 1.39504 0.421697 0
M  V30 34 H 1.34781 1.03894 -1.31768 0
M  V30 35 H 0.898147 -0.870625 1.05258 0
M  V30 36 H 1.40881 -1.47559 -0.593774 0
M  V30 37 H -0.917361 0.058249 0.258424 0
M  V30 38 H -0.235275 -2.69696 -0.580744 0
M  V30 39 H -1.26118 -2.02609 0.777063 0
M  V30 40 H -2.57581 -3.25047 -0.978562 0
M  V30 41 H -2.10732 -2.07231 -2.2039 0
M  V30 42 H -4.22963 -1.96918 -0.294581 0
M  V30 43 H -4.96152 2.22718 -1.55427 0
M  V30 44 H -7.18873 3.10036 -0.828311 0
M  V30 45 H -7.66333 -0.291288 1.64731 0
M  V30 46 H -5.46733 -1.14094 0.942758 0
M  V30 47 H -8.99772 2.99121 0.802081 0
M  V30 48 H -9.62777 1.37501 1.18301 0
M  V30 END ATOM
M  V30 BEGIN BOND
M  V30 1 2 1 2
M  V30 2 1 2 3
M  V30 3 2 3 4
M  V30 4 1 4 5
M  V30 5 2 5 6
M  V30 6 1 6 7
M  V30 7 2 7 8
M  V30 8 1 6 9
M  V30 9 1 2 10
M  V30 10 1 10 11
M  V30 11 1 11 12
M  V30 12 1 12 13
M  V30 13 1 13 14
M  V30 14 1 14 15
M  V30 15 1 15 16
M  V30 16 1 16 17
M  V30 17 2 17 18
M  V30 18 1 17 19
M  V30 19 2 19 20
M  V30 20 1 20 21
M  V30 21 2 21 22
M  V30 22 1 22 23
M  V30 23 2 23 24
M  V30 24 1 22 25
M  V30 25 1 8 3
M  V30 26 1 24 19
M  V30 27 1 4 26
M  V30 28 1 5 27
M  V30 29 1 7 28
M  V30 30 1 8 29
M  V30 31 1 9 30
M  V30 32 1 9 31
M  V30 33 1 10 32
M  V30 34 1 11 33
M  V30 35 1 11 34
M  V30 36 1 12 35
M  V30 37 1 12 36
M  V30 38 1 13 37
M  V30 39 1 14 38
M  V30 40 1 14 39
M  V30 41 1 15 40
M  V30 42 1 15 41
M  V30 43 1 16 42
M  V30 44 1 20 43
M  V30 45 1 21 44
M  V30 46 1 23 45
M  V30 47 1 24 46
M  V30 48 1 25 47
M  V30 49 1 25 48
M  V30 END BOND
M  V30 END CTAB
M  END
