
     RDKit          3D

  0  0  0  0  0  0  0  0  0  0999 V3000
M  V30 BEGIN CTAB
M  V30 COUNTS 27 27 0 0 0
M  V30 BEGIN ATOM
M  V30 1 N -1.78918 -2.07855 -0.183411 0
M  V30 2 C -1.72673 -0.980088 -1.08086 0
M  V30 3 C -1.12426 0.286624 -0.513614 0
M  V30 4 C 0.259392 0.123104 -0.0539133 0
M  V30 5 C 0.599772 -0.656647 1.04254 0
M  V30 6 C 1.90749 -0.796059 1.4535 0
M  V30 7 C 2.93009 -0.140206 0.757013 0
M  V30 8 C 2.62935 0.63666 -0.328653 0
M  V30 9 C 1.29535 0.751571 -0.711601 0
M  V30 10 O 3.57196 1.33036 -1.08925 0
M  V30 11 O 4.23673 -0.280171 1.16852 0
M  V30 12 C -2.02174 0.890941 0.548582 0
M  V30 13 N -3.32506 1.23009 0.01817 0
M  V30 14 H -2.6827 -2.10617 0.372359 0
M  V30 15 H -1.70663 -2.98351 -0.70742 0
M  V30 16 H -2.76844 -0.757165 -1.418 0
M  V30 17 H -1.1901 -1.30527 -1.9957 0
M  V30 18 H -1.12402 1.00229 -1.36438 0
M  V30 19 H -0.162595 -1.17794 1.60728 0
M  V30 20 H 2.195 -1.38845 2.29141 0
M  V30 21 H 1.08786 1.38565 -1.59116 0
M  V30 22 H 4.5461 1.28409 -0.859697 0
M  V30 23 H 4.98676 0.160151 0.711885 0
M  V30 24 H -1.57113 1.83062 0.926185 0
M  V30 25 H -2.11718 0.158071 1.38012 0
M  V30 26 H -3.2298 1.55847 -0.964462 0
M  V30 27 H -3.70631 2.02154 0.584554 0
M  V30 END ATOM
M  V30 BEGIN BOND
M  V30 1 1 1 2
M  V30 2 1 2 3
M  V30 3 1 3 4
M  V30 4 2 4 5
M  V30 5 1 5 6
M  V30 6 2 6 7
M  V30 7 1 7 8
M  V30 8 2 8 9
M  V30 9 1 8 10
M  V30 10 1 7 11
M  V30 11 1 3 12
M  V30 12 1 12 13
M  V30 13 1 9 4
M  V30 14 1 1 14
M  V30 15 1 1 15
M  V30 16 1 2 16
M  V30 17 1 2 17
M  V30 18 1 3 18
M  V30 19 1 5 19
M  V30 20 1 6 20
M  V30 21 1 9 21
M  V30 22 1 10 22
M  V30 23 1 11 23
M  V30 24 1 12 24
M  V30 25 1 12 25
M  V30 26 1 13 26
M  V30 27 1 13 27
M  V30 END BOND
M  V30 END CTAB
M  END
