
     RDKit          3D

  0  0  0  0  0  0  0  0  0  0999 V3000
M  V30 BEGIN CTAB
M  V30 COUNTS 27 27 0 0 0
M  V30 BEGIN ATOM
M  V30 1 C -4.50404 0.840891 0.803569 0
M  V30 2 O -3.13628 1.17057 0.841278 0
M  V30 3 C -2.15329 0.549233 0.121364 0
M  V30 4 C -2.44903 -0.493033 -0.732476 0
M  V30 5 C -1.44796 -1.12857 -1.46752 0
M  V30 6 C -0.149837 -0.682347 -1.31454 0
M  V30 7 N 0.877349 -1.30691 -2.04564 0
M  V30 8 C 0.180585 0.353703 -0.472416 0
M  V30 9 C 1.57451 0.777779 -0.35533 0
M  V30 10 C 2.41025 -0.119215 0.454175 0
M  V30 11 O 1.90573 -1.13501 0.966102 0
M  V30 12 N 3.77524 0.164803 0.652513 0
M  V30 13 N 4.59439 -0.693049 1.43276 0
M  V30 14 C -0.827476 0.960288 0.238725 0
M  V30 15 H -4.91592 1.10048 1.81669 0
M  V30 16 H -5.05685 1.4301 0.0208016 0
M  V30 17 H -4.69987 -0.235873 0.668597 0
M  V30 18 H -3.4713 -0.827241 -0.838733 0
M  V30 19 H -1.71478 -1.93824 -2.12387 0
M  V30 20 H 1.47425 -0.760852 -2.68284 0
M  V30 21 H 1.03332 -2.32212 -1.94177 0
M  V30 22 H 2.06034 0.906219 -1.35475 0
M  V30 23 H 1.60013 1.78581 0.156031 0
M  V30 24 H 4.26467 0.99886 0.253058 0
M  V30 25 H 4.01168 -1.03024 2.25766 0
M  V30 26 H 5.38354 -0.142796 1.86263 0
M  V30 27 H -0.619358 1.77676 0.912166 0
M  V30 END ATOM
M  V30 BEGIN BOND
M  V30 1 1 1 2
M  V30 2 1 2 3
M  V30 3 2 3 4
M  V30 4 1 4 5
M  V30 5 2 5 6
M  V30 6 1 6 7
M  V30 7 1 6 8
M  V30 8 1 8 9
M  V30 9 1 9 10
M  V30 10 2 10 11
M  V30 11 1 10 12
M  V30 12 1 12 13
M  V30 13 2 8 14
M  V30 14 1 14 3
M  V30 15 1 1 15
M  V30 16 1 1 16
M  V30 17 1 1 17
M  V30 18 1 4 18
M  V30 19 1 5 19
M  V30 20 1 7 20
M  V30 21 1 7 21
M  V30 22 1 9 22
M  V30 23 1 9 23
M  V30 24 1 12 24
M  V30 25 1 13 25
M  V30 26 1 13 26
M  V30 27 1 14 27
M  V30 END BOND
M  V30 END CTAB
M  END
