
     RDKit          3D

  0  0  0  0  0  0  0  0  0  0999 V3000
M  V30 BEGIN CTAB
M  V30 COUNTS 66 68 0 0 0
M  V30 BEGIN ATOM
M  V30 1 N 5.56085 2.47373 -1.71405 0
M  V30 2 C 6.804 1.9358 -1.51267 0
M  V30 3 C 6.90822 0.592122 -0.893419 0
M  V30 4 C 6.35062 0.410657 0.458636 0
M  V30 5 C 4.90589 0.599768 0.677719 0
M  V30 6 C 3.99749 -0.345637 -0.0840595 0 CFG=2
M  V30 7 C 2.62789 0.00546965 0.267179 0
M  V30 8 O 2.36602 1.26581 0.0793614 0
M  V30 9 N 1.57038 -0.756646 0.758849 0
M  V30 10 C 1.55898 -2.16529 1.07933 0
M  V30 11 C 0.665763 -2.78626 -0.00430302 0
M  V30 12 C -0.714504 -2.30806 0.28469 0
M  V30 13 C -0.896129 -0.851498 0.496342 0 CFG=1
M  V30 14 C 0.289723 -0.0832977 0.981956 0
M  V30 15 C -1.25901 -0.257834 -0.876335 0
M  V30 16 C -2.25838 0.887976 -0.677242 0 CFG=1
M  V30 17 O -2.27242 1.642 -1.84606 0
M  V30 18 C -3.60079 0.196558 -0.434236 0 CFG=1
M  V30 19 N -3.43774 -0.557214 0.792682 0
M  V30 20 C -2.09951 -0.636957 1.34609 0
M  V30 21 O -2.01058 -0.51204 2.61733 0
M  V30 22 C -4.49619 -1.24051 1.50229 0
M  V30 23 C -4.57803 -2.65108 0.921511 0
M  V30 24 C -4.70921 1.15265 -0.41716 0
M  V30 25 C -6.01201 0.749232 -0.572377 0
M  V30 26 C -7.09029 1.62585 -0.550814 0
M  V30 27 C -6.85259 2.95781 -0.36696 0
M  V30 28 C -5.56273 3.39324 -0.209001 0
M  V30 29 C -4.48905 2.49987 -0.232639 0
M  V30 30 N 4.39779 -1.69808 0.0167196 0
M  V30 31 H 4.99532 2.1306 -2.44975 0
M  V30 32 H 5.43656 3.40547 -1.421 0
M  V30 33 H 7.31847 1.87738 -2.52385 0
M  V30 34 H 7.45302 2.65145 -0.937794 0
M  V30 35 H 8.0174 0.366672 -0.816843 0
M  V30 36 H 6.5493 -0.145086 -1.64595 0
M  V30 37 H 6.6793 -0.572152 0.920042 0
M  V30 38 H 6.87581 1.16418 1.12688 0
M  V30 39 H 4.72155 0.460311 1.78526 0
M  V30 40 H 4.56313 1.62867 0.477647 0
M  V30 41 H 4.11297 -0.0671433 -1.1754 0
M  V30 42 H 0.96366 -2.34684 2.03299 0
M  V30 43 H 2.48719 -2.66365 1.23357 0
M  V30 44 H 0.684617 -3.87491 0.0342947 0
M  V30 45 H 1.02731 -2.40107 -0.968721 0
M  V30 46 H -1.0668 -2.88435 1.19077 0
M  V30 47 H -1.3695 -2.7103 -0.543947 0
M  V30 48 H 0.340257 0.907616 0.496391 0
M  V30 49 H 0.157541 0.0999758 2.07069 0
M  V30 50 H -1.79172 -1.00934 -1.50024 0
M  V30 51 H -0.37199 0.0689193 -1.42714 0
M  V30 52 H -1.97061 1.4616 0.213359 0
M  V30 53 H -2.18857 1.02991 -2.63 0
M  V30 54 H -3.70013 -0.526938 -1.30951 0
M  V30 55 H -4.19391 -1.31866 2.57498 0
M  V30 56 H -5.46947 -0.777234 1.46176 0
M  V30 57 H -5.60985 -3.03702 0.944166 0
M  V30 58 H -4.27893 -2.64778 -0.157611 0
M  V30 59 H -3.87258 -3.33028 1.42778 0
M  V30 60 H -6.25942 -0.311655 -0.728879 0
M  V30 61 H -8.08254 1.25103 -0.676999 0
M  V30 62 H -7.69111 3.66649 -0.346553 0
M  V30 63 H -5.39547 4.44462 -0.0653901 0
M  V30 64 H -3.48003 2.86356 -0.103807 0
M  V30 65 H 3.97282 -2.36357 -0.623497 0
M  V30 66 H 4.77197 -2.02862 0.906168 0
M  V30 END ATOM
M  V30 BEGIN BOND
M  V30 1 1 1 2
M  V30 2 1 2 3
M  V30 3 1 3 4
M  V30 4 1 4 5
M  V30 5 1 5 6
M  V30 6 1 6 7
M  V30 7 2 7 8
M  V30 8 1 7 9
M  V30 9 1 9 10
M  V30 10 1 10 11
M  V30 11 1 11 12
M  V30 12 1 12 13
M  V30 13 1 13 14
M  V30 14 1 13 15
M  V30 15 1 15 16
M  V30 16 1 16 17
M  V30 17 1 16 18
M  V30 18 1 18 19
M  V30 19 1 19 20
M  V30 20 2 20 21
M  V30 21 1 19 22
M  V30 22 1 22 23
M  V30 23 1 18 24
M  V30 24 2 24 25
M  V30 25 1 25 26
M  V30 26 2 26 27
M  V30 27 1 27 28
M  V30 28 2 28 29
M  V30 29 1 6 30
M  V30 30 1 14 9
M  V30 31 1 29 24
M  V30 32 1 13 20 CFG=1
M  V30 33 1 1 31
M  V30 34 1 1 32
M  V30 35 1 2 33
M  V30 36 1 2 34
M  V30 37 1 3 35
M  V30 38 1 3 36
M  V30 39 1 4 37
M  V30 40 1 4 38
M  V30 41 1 5 39
M  V30 42 1 5 40
M  V30 43 1 6 41 CFG=3
M  V30 44 1 10 42
M  V30 45 1 10 43
M  V30 46 1 11 44
M  V30 47 1 11 45
M  V30 48 1 12 46
M  V30 49 1 12 47
M  V30 50 1 14 48
M  V30 51 1 14 49
M  V30 52 1 15 50
M  V30 53 1 15 51
M  V30 54 1 16 52 CFG=1
M  V30 55 1 17 53
M  V30 56 1 18 54 CFG=3
M  V30 57 1 22 55
M  V30 58 1 22 56
M  V30 59 1 23 57
M  V30 60 1 23 58
M  V30 61 1 23 59
M  V30 62 1 25 60
M  V30 63 1 26 61
M  V30 64 1 27 62
M  V30 65 1 28 63
M  V30 66 1 29 64
M  V30 67 1 30 65
M  V30 68 1 30 66
M  V30 END BOND
M  V30 END CTAB
M  END
