
     RDKit          3D

  0  0  0  0  0  0  0  0  0  0999 V3000
M  V30 BEGIN CTAB
M  V30 COUNTS 44 46 0 0 0
M  V30 BEGIN ATOM
M  V30 1 N -0.11196 -3.8712 0.207316 0
M  V30 2 C -0.838742 -2.65293 0.1215 0
M  V30 3 N -2.00506 -2.63881 -0.504858 0
M  V30 4 C -2.74668 -1.53252 -0.626309 0
M  V30 5 N -3.99027 -1.55763 -1.30863 0
M  V30 6 C -2.27674 -0.337507 -0.0712671 0
M  V30 7 C -1.06941 -0.345874 0.578296 0
M  V30 8 C -0.533735 0.891147 1.19237 0
M  V30 9 N 0.738518 0.688869 1.81053 0
M  V30 10 C 1.93122 0.366362 1.12601 0
M  V30 11 C 3.06541 0.0447646 1.85411 0
M  V30 12 C 4.25127 -0.26432 1.24049 0
M  V30 13 C 4.37029 -0.269176 -0.134674 0
M  V30 14 C 3.2395 0.0514855 -0.855883 0
M  V30 15 C 2.04945 0.361572 -0.227892 0
M  V30 16 C 5.63256 -0.604425 -0.766515 0
M  V30 17 O 6.61882 -0.901596 -0.0461587 0
M  V30 18 C 5.80159 -0.609639 -2.22635 0
M  V30 19 Cl 5.38393 -2.17199 -2.9685 0
M  V30 20 N -0.396274 -1.50177 0.650472 0
M  V30 21 C -3.098 0.856417 -0.207256 0
M  V30 22 C -3.06931 1.54198 -1.40271 0
M  V30 23 C -3.83939 2.69425 -1.57807 0
M  V30 24 C -4.64504 3.15837 -0.538708 0
M  V30 25 Cl -5.63465 4.60322 -0.702595 0
M  V30 26 C -4.67132 2.47704 0.6443 0
M  V30 27 C -3.91015 1.35435 0.790799 0
M  V30 28 H -0.333371 -4.7145 -0.341782 0
M  V30 29 H 0.691535 -3.90274 0.869355 0
M  V30 30 H -4.84097 -1.27873 -0.788352 0
M  V30 31 H -4.08086 -1.84229 -2.30299 0
M  V30 32 H -0.372547 1.60437 0.332113 0
M  V30 33 H -1.2681 1.38641 1.84938 0
M  V30 34 H 0.758306 0.796748 2.86661 0
M  V30 35 H 2.97579 0.0466726 2.94585 0
M  V30 36 H 5.12956 -0.513752 1.82245 0
M  V30 37 H 3.33718 0.0460338 -1.94107 0
M  V30 38 H 1.19235 0.608105 -0.849036 0
M  V30 39 H 6.85997 -0.419005 -2.51448 0
M  V30 40 H 5.22888 0.239954 -2.65325 0
M  V30 41 H -2.47614 1.24375 -2.24011 0
M  V30 42 H -3.85709 3.2703 -2.48964 0
M  V30 43 H -5.28349 2.8167 1.45745 0
M  V30 44 H -3.90685 0.781528 1.72985 0
M  V30 END ATOM
M  V30 BEGIN BOND
M  V30 1 1 1 2
M  V30 2 2 2 3
M  V30 3 1 3 4
M  V30 4 1 4 5
M  V30 5 2 4 6
M  V30 6 1 6 7
M  V30 7 1 7 8
M  V30 8 1 8 9
M  V30 9 1 9 10
M  V30 10 2 10 11
M  V30 11 1 11 12
M  V30 12 2 12 13
M  V30 13 1 13 14
M  V30 14 2 14 15
M  V30 15 1 13 16
M  V30 16 2 16 17
M  V30 17 1 16 18
M  V30 18 1 18 19
M  V30 19 2 7 20
M  V30 20 1 6 21
M  V30 21 2 21 22
M  V30 22 1 22 23
M  V30 23 2 23 24
M  V30 24 1 24 25
M  V30 25 1 24 26
M  V30 26 2 26 27
M  V30 27 1 20 2
M  V30 28 1 27 21
M  V30 29 1 15 10
M  V30 30 1 1 28
M  V30 31 1 1 29
M  V30 32 1 5 30
M  V30 33 1 5 31
M  V30 34 1 8 32
M  V30 35 1 8 33
M  V30 36 1 9 34
M  V30 37 1 11 35
M  V30 38 1 12 36
M  V30 39 1 14 37
M  V30 40 1 15 38
M  V30 41 1 18 39
M  V30 42 1 18 40
M  V30 43 1 22 41
M  V30 44 1 23 42
M  V30 45 1 26 43
M  V30 46 1 27 44
M  V30 END BOND
M  V30 END CTAB
M  END
