
     RDKit          3D

  0  0  0  0  0  0  0  0  0  0999 V3000
M  V30 BEGIN CTAB
M  V30 COUNTS 19 19 0 0 0
M  V30 BEGIN ATOM
M  V30 1 N 3.04485 -1.15619 -0.600334 0
M  V30 2 N 2.50634 0.0360067 -0.919945 0
M  V30 3 C 1.40208 0.597154 -0.761271 0
M  V30 4 C 0.194563 0.138276 -0.124233 0
M  V30 5 C -0.919989 0.974328 -0.0806351 0
M  V30 6 N -0.82314 2.26859 -0.675179 0
M  V30 7 C -2.10013 0.590321 0.514091 0
M  V30 8 C -2.20719 -0.657773 1.0924 0
M  V30 9 C -1.12565 -1.49973 1.06336 0
M  V30 10 C 0.0734193 -1.12072 0.463914 0
M  V30 11 H 3.22887 -1.86978 -1.36409 0
M  V30 12 H 3.32114 -1.48641 0.366061 0
M  V30 13 H 1.35003 1.63015 -1.18883 0
M  V30 14 H -0.284122 3.05225 -0.255911 0
M  V30 15 H -1.30509 2.49564 -1.58886 0
M  V30 16 H -2.94182 1.29182 0.516706 0
M  V30 17 H -3.14144 -0.975173 1.56901 0
M  V30 18 H -1.18192 -2.49687 1.51476 0
M  V30 19 H 0.909211 -1.81189 0.458984 0
M  V30 END ATOM
M  V30 BEGIN BOND
M  V30 1 1 1 2
M  V30 2 2 2 3 CFG=2
M  V30 3 1 3 4
M  V30 4 2 4 5
M  V30 5 1 5 6
M  V30 6 1 5 7
M  V30 7 2 7 8
M  V30 8 1 8 9
M  V30 9 2 9 10
M  V30 10 1 10 4
M  V30 11 1 1 11
M  V30 12 1 1 12
M  V30 13 1 3 13
M  V30 14 1 6 14
M  V30 15 1 6 15
M  V30 16 1 7 16
M  V30 17 1 8 17
M  V30 18 1 9 18
M  V30 19 1 10 19
M  V30 END BOND
M  V30 END CTAB
M  END
