
     RDKit          3D

  0  0  0  0  0  0  0  0  0  0999 V3000
M  V30 BEGIN CTAB
M  V30 COUNTS 32 32 0 0 0
M  V30 BEGIN ATOM
M  V30 1 N -3.84594 0.5875 -0.538871 0
M  V30 2 C -2.66266 -0.271884 -0.52427 0 CFG=2
M  V30 3 C -3.11853 -1.67316 -0.298631 0
M  V30 4 S -1.8459 -2.38293 0.795745 0
M  V30 5 C -0.703065 -0.926171 0.689161 0 CFG=1
M  V30 6 C 0.0725849 -1.17172 -0.547938 0
M  V30 7 C 1.09 -0.158594 -0.914802 0
M  V30 8 C 2.11098 -0.0509148 0.189893 0
M  V30 9 C 3.1576 0.963931 -0.147199 0
M  V30 10 C 4.13417 1.0337 0.963446 0
M  V30 11 O 5.18565 1.92972 0.825568 0
M  V30 12 O 3.98901 0.302669 1.96921 0
M  V30 13 C -1.77789 0.10265 0.612364 0 CFG=1
M  V30 14 N -1.3337 1.45491 0.599669 0
M  V30 15 H -3.70959 1.41704 -1.15017 0
M  V30 16 H -4.65568 0.0515337 -0.940369 0
M  V30 17 H -2.15692 -0.0910693 -1.48458 0
M  V30 18 H -3.01794 -2.22114 -1.27676 0
M  V30 19 H -4.12637 -1.76001 0.123458 0
M  V30 20 H -0.101718 -0.867932 1.60912 0
M  V30 21 H -0.600649 -1.39389 -1.3927 0
M  V30 22 H 0.634816 -2.1413 -0.384751 0
M  V30 23 H 1.64094 -0.547369 -1.81014 0
M  V30 24 H 0.685614 0.82192 -1.2199 0
M  V30 25 H 2.58587 -1.06796 0.283329 0
M  V30 26 H 1.58982 0.157726 1.14155 0
M  V30 27 H 2.65487 1.9468 -0.286062 0
M  V30 28 H 3.67526 0.652958 -1.06766 0
M  V30 29 H 6.12106 1.49538 0.791677 0
M  V30 30 H -2.3982 -0.0202009 1.5527 0
M  V30 31 H -1.14639 1.77383 1.57858 0
M  V30 32 H -2.12711 2.05398 0.259313 0
M  V30 END ATOM
M  V30 BEGIN BOND
M  V30 1 1 1 2
M  V30 2 1 2 3
M  V30 3 1 3 4
M  V30 4 1 4 5
M  V30 5 1 5 6
M  V30 6 1 6 7
M  V30 7 1 7 8
M  V30 8 1 8 9
M  V30 9 1 9 10
M  V30 10 1 10 11
M  V30 11 2 10 12
M  V30 12 1 5 13
M  V30 13 1 13 14
M  V30 14 1 13 2
M  V30 15 1 1 15
M  V30 16 1 1 16
M  V30 17 1 2 17 CFG=3
M  V30 18 1 3 18
M  V30 19 1 3 19
M  V30 20 1 5 20 CFG=1
M  V30 21 1 6 21
M  V30 22 1 6 22
M  V30 23 1 7 23
M  V30 24 1 7 24
M  V30 25 1 8 25
M  V30 26 1 8 26
M  V30 27 1 9 27
M  V30 28 1 9 28
M  V30 29 1 11 29
M  V30 30 1 13 30 CFG=1
M  V30 31 1 14 31
M  V30 32 1 14 32
M  V30 END BOND
M  V30 END CTAB
M  END
