
     RDKit          3D

  0  0  0  0  0  0  0  0  0  0999 V3000
M  V30 BEGIN CTAB
M  V30 COUNTS 69 72 0 0 0
M  V30 BEGIN ATOM
M  V30 1 N -3.35882 0.392679 2.00727 0
M  V30 2 C -3.0195 1.20336 0.955454 0 CFG=2
M  V30 3 C -3.82612 1.00133 -0.27162 0
M  V30 4 C -3.77579 -0.352745 -0.859513 0
M  V30 5 C -2.83994 -1.31951 -0.575606 0
M  V30 6 C -2.86348 -2.58853 -1.16228 0
M  V30 7 C -3.85058 -2.90409 -2.0607 0
M  V30 8 C -4.82642 -1.95675 -2.38458 0
M  V30 9 C -4.76836 -0.727197 -1.78884 0
M  V30 10 C -5.24898 1.33309 -0.025074 0
M  V30 11 C -5.81961 2.46194 -0.621967 0
M  V30 12 C -7.14593 2.77281 -0.412564 0
M  V30 13 C -7.95312 1.9802 0.392685 0
M  V30 14 C -7.3934 0.879841 0.973122 0
M  V30 15 C -6.06755 0.574466 0.759758 0
M  V30 16 C -1.57061 1.42289 0.722525 0
M  V30 17 O -1.2734 2.03928 -0.33892 0
M  V30 18 N -0.578904 0.979708 1.62283 0
M  V30 19 C -0.74349 0.259902 2.86106 0
M  V30 20 C 0.631603 0.174342 3.4672 0
M  V30 21 C 1.35682 1.34929 2.86356 0
M  V30 22 C 0.867001 1.22184 1.40834 0 CFG=1
M  V30 23 C 1.51347 0.0234184 0.848247 0
M  V30 24 O 0.838001 -0.999301 0.617082 0
M  V30 25 N 2.89195 0.0280845 0.572817 0
M  V30 26 C 3.60271 -1.10888 0.0216756 0
M  V30 27 C 5.05605 -0.814596 -0.16368 0 CFG=1
M  V30 28 C 5.74898 -2.03035 -0.739549 0
M  V30 29 C 7.04123 -1.66064 -1.42326 0
M  V30 30 C 6.80564 -0.831703 -2.64928 0 CFG=2
M  V30 31 N 7.94969 0.0549972 -2.81568 0
M  V30 32 C 5.58431 0.00797603 -2.46767 0
M  V30 33 C 5.31735 0.38347 -1.02735 0
M  V30 34 H -3.65324 0.772597 2.87601 0
M  V30 35 H -3.4255 -0.555479 1.89911 0
M  V30 36 H -3.34623 2.27553 1.343 0
M  V30 37 H -3.45075 1.68815 -1.10112 0
M  V30 38 H -2.05044 -1.11242 0.109927 0
M  V30 39 H -2.12053 -3.32033 -0.920526 0
M  V30 40 H -3.93416 -3.85985 -2.55299 0
M  V30 41 H -5.60967 -2.21484 -3.10101 0
M  V30 42 H -5.51106 0.0311757 -2.01859 0
M  V30 43 H -5.1998 3.09091 -1.25441 0
M  V30 44 H -7.6255 3.64425 -0.860854 0
M  V30 45 H -9.01226 2.25227 0.543839 0
M  V30 46 H -7.97422 0.237696 1.60205 0
M  V30 47 H -5.67391 -0.315982 1.23479 0
M  V30 48 H -1.18483 -0.751833 2.70286 0
M  V30 49 H -1.36059 0.871684 3.57605 0
M  V30 50 H 1.08791 -0.767877 3.09038 0
M  V30 51 H 0.612037 0.212664 4.5751 0
M  V30 52 H 2.44807 1.28121 2.91608 0
M  V30 53 H 0.938672 2.26199 3.32536 0
M  V30 54 H 1.01677 2.13978 0.841973 0
M  V30 55 H 3.44476 0.887143 0.770287 0
M  V30 56 H 3.52117 -1.92701 0.772599 0
M  V30 57 H 3.10419 -1.4881 -0.89564 0
M  V30 58 H 5.48928 -0.623049 0.835827 0
M  V30 59 H 5.0682 -2.55823 -1.46979 0
M  V30 60 H 5.98418 -2.78069 0.0410184 0
M  V30 61 H 7.60758 -2.5882 -1.63972 0
M  V30 62 H 7.62147 -1.04663 -0.690937 0
M  V30 63 H 6.76254 -1.46109 -3.54967 0
M  V30 64 H 8.41802 0.225825 -1.89732 0
M  V30 65 H 8.60918 -0.262195 -3.54339 0
M  V30 66 H 5.75331 0.972955 -3.01657 0
M  V30 67 H 4.69111 -0.441018 -2.94907 0
M  V30 68 H 4.46577 1.06815 -0.996399 0
M  V30 69 H 6.20765 0.910225 -0.634134 0
M  V30 END ATOM
M  V30 BEGIN BOND
M  V30 1 1 1 2
M  V30 2 1 2 3
M  V30 3 1 3 4
M  V30 4 2 4 5
M  V30 5 1 5 6
M  V30 6 2 6 7
M  V30 7 1 7 8
M  V30 8 2 8 9
M  V30 9 1 3 10
M  V30 10 2 10 11
M  V30 11 1 11 12
M  V30 12 2 12 13
M  V30 13 1 13 14
M  V30 14 2 14 15
M  V30 15 1 2 16
M  V30 16 2 16 17
M  V30 17 1 16 18
M  V30 18 1 18 19
M  V30 19 1 19 20
M  V30 20 1 20 21
M  V30 21 1 21 22
M  V30 22 1 22 23
M  V30 23 2 23 24
M  V30 24 1 23 25
M  V30 25 1 25 26
M  V30 26 1 26 27
M  V30 27 1 27 28
M  V30 28 1 28 29
M  V30 29 1 29 30
M  V30 30 1 30 31
M  V30 31 1 30 32
M  V30 32 1 32 33
M  V30 33 1 9 4
M  V30 34 1 15 10
M  V30 35 1 22 18
M  V30 36 1 33 27
M  V30 37 1 1 34
M  V30 38 1 1 35
M  V30 39 1 2 36 CFG=1
M  V30 40 1 3 37
M  V30 41 1 5 38
M  V30 42 1 6 39
M  V30 43 1 7 40
M  V30 44 1 8 41
M  V30 45 1 9 42
M  V30 46 1 11 43
M  V30 47 1 12 44
M  V30 48 1 13 45
M  V30 49 1 14 46
M  V30 50 1 15 47
M  V30 51 1 19 48
M  V30 52 1 19 49
M  V30 53 1 20 50
M  V30 54 1 20 51
M  V30 55 1 21 52
M  V30 56 1 21 53
M  V30 57 1 22 54 CFG=3
M  V30 58 1 25 55
M  V30 59 1 26 56
M  V30 60 1 26 57
M  V30 61 1 27 58 CFG=1
M  V30 62 1 28 59
M  V30 63 1 28 60
M  V30 64 1 29 61
M  V30 65 1 29 62
M  V30 66 1 30 63 CFG=3
M  V30 67 1 31 64
M  V30 68 1 31 65
M  V30 69 1 32 66
M  V30 70 1 32 67
M  V30 71 1 33 68
M  V30 72 1 33 69
M  V30 END BOND
M  V30 END CTAB
M  END
