
     RDKit          3D

  0  0  0  0  0  0  0  0  0  0999 V3000
M  V30 BEGIN CTAB
M  V30 COUNTS 24 25 0 0 0
M  V30 BEGIN ATOM
M  V30 1 C -3.10821 -1.76548 -0.513983 0
M  V30 2 S -2.26486 -0.996687 0.895416 0
M  V30 3 C -1.23046 0.366074 0.427759 0
M  V30 4 C 0.112726 0.18891 0.221834 0
M  V30 5 C 0.75478 -1.01258 0.36711 0
M  V30 6 N 0.010733 -2.16014 0.768716 0
M  V30 7 N 2.09859 -1.17016 0.16525 0
M  V30 8 C 2.82143 -0.0948101 -0.191413 0
M  V30 9 N 4.21242 -0.159393 -0.422059 0
M  V30 10 N 2.24177 1.11406 -0.347693 0
M  V30 11 C 0.928953 1.27298 -0.151348 0
M  V30 12 C 0.368081 2.53427 -0.311396 0
M  V30 13 C -0.983806 2.72188 -0.104642 0
M  V30 14 C -1.7661 1.64457 0.260528 0
M  V30 15 H -3.55741 -2.70868 -0.13011 0
M  V30 16 H -2.43054 -1.98176 -1.35166 0
M  V30 17 H -3.93577 -1.09182 -0.857366 0
M  V30 18 H -0.225486 -2.38324 1.75909 0
M  V30 19 H -0.289098 -2.80889 0.0132011 0
M  V30 20 H 4.60736 0.272265 -1.27047 0
M  V30 21 H 4.82781 -0.635198 0.254026 0
M  V30 22 H 1.00089 3.36045 -0.598035 0
M  V30 23 H -1.36644 3.71505 -0.240737 0
M  V30 24 H -2.82736 1.77834 0.425769 0
M  V30 END ATOM
M  V30 BEGIN BOND
M  V30 1 1 1 2
M  V30 2 1 2 3
M  V30 3 2 3 4
M  V30 4 1 4 5
M  V30 5 1 5 6
M  V30 6 2 5 7
M  V30 7 1 7 8
M  V30 8 1 8 9
M  V30 9 2 8 10
M  V30 10 1 10 11
M  V30 11 2 11 12
M  V30 12 1 12 13
M  V30 13 2 13 14
M  V30 14 1 14 3
M  V30 15 1 11 4
M  V30 16 1 1 15
M  V30 17 1 1 16
M  V30 18 1 1 17
M  V30 19 1 6 18
M  V30 20 1 6 19
M  V30 21 1 9 20
M  V30 22 1 9 21
M  V30 23 1 12 22
M  V30 24 1 13 23
M  V30 25 1 14 24
M  V30 END BOND
M  V30 END CTAB
M  END
