
     RDKit          3D

  0  0  0  0  0  0  0  0  0  0999 V3000
M  V30 BEGIN CTAB
M  V30 COUNTS 23 24 0 0 0
M  V30 BEGIN ATOM
M  V30 1 N -3.30673 -1.33312 -1.34017 0
M  V30 2 C -2.37249 -0.542729 -0.623232 0
M  V30 3 C -1.0154 -0.753432 -0.690057 0
M  V30 4 C -0.0790304 0.014828 0.00895886 0
M  V30 5 C 1.35125 -0.291261 -0.129957 0
M  V30 6 C 2.48468 0.219265 0.374016 0
M  V30 7 C 3.66327 -0.338195 0.0106485 0
M  V30 8 C 3.61778 -1.39177 -0.851944 0
M  V30 9 S 1.95356 -1.5802 -1.13436 0
M  V30 10 C -0.551993 1.01299 0.786408 0
M  V30 11 N 0.30065 1.85299 1.53744 0
M  V30 12 C -1.94146 1.24633 0.869193 0
M  V30 13 C -2.83286 0.476311 0.172225 0
M  V30 14 H -4.00245 -1.88303 -0.826373 0
M  V30 15 H -3.28619 -1.35447 -2.37308 0
M  V30 16 H -0.629808 -1.54856 -1.3087 0
M  V30 17 H 2.47523 1.08332 1.07784 0
M  V30 18 H 4.65432 0.0127541 0.373487 0
M  V30 19 H 4.46574 -1.97531 -1.26218 0
M  V30 20 H 0.552298 1.67406 2.55055 0
M  V30 21 H 0.704539 2.70312 1.05466 0
M  V30 22 H -2.29968 2.06344 1.50788 0
M  V30 23 H -3.90523 0.632642 0.216742 0
M  V30 END ATOM
M  V30 BEGIN BOND
M  V30 1 1 1 2
M  V30 2 2 2 3
M  V30 3 1 3 4
M  V30 4 1 4 5
M  V30 5 2 5 6
M  V30 6 1 6 7
M  V30 7 2 7 8
M  V30 8 1 8 9
M  V30 9 2 4 10
M  V30 10 1 10 11
M  V30 11 1 10 12
M  V30 12 2 12 13
M  V30 13 1 13 2
M  V30 14 1 9 5
M  V30 15 1 1 14
M  V30 16 1 1 15
M  V30 17 1 3 16
M  V30 18 1 6 17
M  V30 19 1 7 18
M  V30 20 1 8 19
M  V30 21 1 11 20
M  V30 22 1 11 21
M  V30 23 1 12 22
M  V30 24 1 13 23
M  V30 END BOND
M  V30 END CTAB
M  END
