
     RDKit          3D

  0  0  0  0  0  0  0  0  0  0999 V3000
M  V30 BEGIN CTAB
M  V30 COUNTS 23 23 0 0 0
M  V30 BEGIN ATOM
M  V30 1 N -1.84341 -1.21455 2.23972 0
M  V30 2 C -1.64111 -0.43775 1.06077 0
M  V30 3 C -0.395943 -0.509064 0.420842 0
M  V30 4 C -0.075099 0.188983 -0.719831 0
M  V30 5 O 1.09583 0.18235 -1.39911 0
M  V30 6 C 2.30734 -0.427385 -1.25138 0
M  V30 7 C 2.9881 -0.0207835 -0.000258534 0
M  V30 8 C 3.34992 -0.839929 0.96889 0
M  V30 9 C -1.11895 1.00618 -1.21674 0
M  V30 10 C -2.32285 1.05955 -0.57726 0
M  V30 11 N -3.35226 1.8847 -1.09354 0
M  V30 12 N -2.56559 0.351633 0.531744 0
M  V30 13 H -2.12458 -2.2172 2.21997 0
M  V30 14 H -1.71234 -0.79109 3.19538 0
M  V30 15 H 0.363922 -1.16064 0.834457 0
M  V30 16 H 2.96519 -0.14044 -2.12187 0
M  V30 17 H 2.22938 -1.5702 -1.26472 0
M  V30 18 H 3.18351 1.06396 0.0744744 0
M  V30 19 H 3.84327 -0.445432 1.84625 0
M  V30 20 H 3.16204 -1.90246 0.902797 0
M  V30 21 H -0.889972 1.56615 -2.11588 0
M  V30 22 H -3.64262 1.79838 -2.07764 0
M  V30 23 H -3.8038 2.57502 -0.45708 0
M  V30 END ATOM
M  V30 BEGIN BOND
M  V30 1 1 1 2
M  V30 2 2 2 3
M  V30 3 1 3 4
M  V30 4 1 4 5
M  V30 5 1 5 6
M  V30 6 1 6 7
M  V30 7 2 7 8 CFG=2
M  V30 8 2 4 9
M  V30 9 1 9 10
M  V30 10 1 10 11
M  V30 11 2 10 12
M  V30 12 1 12 2
M  V30 13 1 1 13
M  V30 14 1 1 14
M  V30 15 1 3 15
M  V30 16 1 6 16
M  V30 17 1 6 17
M  V30 18 1 7 18
M  V30 19 1 8 19
M  V30 20 1 8 20
M  V30 21 1 9 21
M  V30 22 1 11 22
M  V30 23 1 11 23
M  V30 END BOND
M  V30 END CTAB
M  END
