
     RDKit          3D

  0  0  0  0  0  0  0  0  0  0999 V3000
M  V30 BEGIN CTAB
M  V30 COUNTS 23 23 0 0 0
M  V30 BEGIN ATOM
M  V30 1 F 3.99239 1.87179 -1.28233 0
M  V30 2 C 3.48614 0.792032 -0.518646 0
M  V30 3 O 2.26273 0.413972 -0.907869 0
M  V30 4 C 1.06733 0.188609 -0.360144 0
M  V30 5 C 0.0152315 -0.221822 -1.24514 0
M  V30 6 C -1.22636 -0.476709 -0.810413 0
M  V30 7 C -2.31135 -0.897743 -1.70899 0
M  V30 8 O -2.07243 -1.02446 -2.92548 0
M  V30 9 O -3.58298 -1.15369 -1.23119 0
M  V30 10 C -1.52146 -0.343123 0.544465 0
M  V30 11 C -0.520687 0.0498661 1.40291 0
M  V30 12 C 0.787328 0.322156 0.969235 0
M  V30 13 N 1.74879 0.718078 1.91212 0
M  V30 14 N -2.84344 -0.619586 0.974591 0
M  V30 15 F 4.37684 -0.258093 -0.90203 0
M  V30 16 H 3.64812 1.00015 0.548236 0
M  V30 17 H 0.247049 -0.323598 -2.28909 0
M  V30 18 H -4.39467 -0.601661 -1.48539 0
M  V30 19 H -0.721924 0.16217 2.46358 0
M  V30 20 H 1.94184 1.74585 2.08838 0
M  V30 21 H 2.32324 0.0615885 2.48779 0
M  V30 22 H -3.50403 0.170863 1.10898 0
M  V30 23 H -3.19773 -1.57665 1.16644 0
M  V30 END ATOM
M  V30 BEGIN BOND
M  V30 1 1 1 2
M  V30 2 1 2 3
M  V30 3 1 3 4
M  V30 4 2 4 5
M  V30 5 1 5 6
M  V30 6 1 6 7
M  V30 7 2 7 8
M  V30 8 1 7 9
M  V30 9 2 6 10
M  V30 10 1 10 11
M  V30 11 2 11 12
M  V30 12 1 12 13
M  V30 13 1 10 14
M  V30 14 1 2 15
M  V30 15 1 12 4
M  V30 16 1 2 16
M  V30 17 1 5 17
M  V30 18 1 9 18
M  V30 19 1 11 19
M  V30 20 1 13 20
M  V30 21 1 13 21
M  V30 22 1 14 22
M  V30 23 1 14 23
M  V30 END BOND
M  V30 END CTAB
M  END
