
     RDKit          3D

  0  0  0  0  0  0  0  0  0  0999 V3000
M  V30 BEGIN CTAB
M  V30 COUNTS 36 37 0 0 0
M  V30 BEGIN ATOM
M  V30 1 N -4.43869 1.42266 -2.16326 0
M  V30 2 C -4.60694 0.210331 -1.44172 0
M  V30 3 N -5.65491 -0.476516 -1.71401 0
M  V30 4 C -3.59981 -0.167738 -0.45919 0
M  V30 5 C -2.5029 0.630697 -0.229255 0
M  V30 6 C -1.53724 0.278538 0.70531 0
M  V30 7 C -1.57562 -0.857906 1.46327 0
M  V30 8 C -2.716 -1.66175 1.20817 0
M  V30 9 C -3.66801 -1.31836 0.290805 0
M  V30 10 C -0.596594 -1.34386 2.3847 0
M  V30 11 C 0.664375 -1.23595 2.35408 0
M  V30 12 C 1.47012 -0.607052 1.34439 0
M  V30 13 C 2.60045 0.132777 1.74068 0
M  V30 14 C 3.50925 0.632134 0.84966 0
M  V30 15 C 3.38333 0.445916 -0.503192 0
M  V30 16 C 2.29125 -0.273347 -0.920124 0
M  V30 17 C 1.36894 -0.781242 -0.0178912 0
M  V30 18 C 4.34301 0.971946 -1.47662 0
M  V30 19 N 5.47964 1.72132 -1.03356 0
M  V30 20 N 4.16142 0.758701 -2.72893 0
M  V30 21 H -4.6144 1.40152 -3.18892 0
M  V30 22 H -4.15195 2.32064 -1.72358 0
M  V30 23 H -5.89598 -1.3661 -1.26864 0
M  V30 24 H -2.39716 1.55512 -0.795179 0
M  V30 25 H -0.718018 0.982182 0.87998 0
M  V30 26 H -2.79895 -2.57846 1.78568 0
M  V30 27 H -4.54311 -1.95142 0.105015 0
M  V30 28 H -0.989377 -1.9176 3.29041 0
M  V30 29 H 1.27906 -1.68102 3.21678 0
M  V30 30 H 2.71624 0.291117 2.82543 0
M  V30 31 H 4.37561 1.20349 1.17945 0
M  V30 32 H 2.15675 -0.441751 -1.97718 0
M  V30 33 H 0.539834 -1.39255 -0.412282 0
M  V30 34 H 5.71567 2.68023 -1.36355 0
M  V30 35 H 6.10709 1.27942 -0.339517 0
M  V30 36 H 4.84363 1.13389 -3.40529 0
M  V30 END ATOM
M  V30 BEGIN BOND
M  V30 1 1 1 2
M  V30 2 2 2 3 CFG=2
M  V30 3 1 2 4
M  V30 4 2 4 5
M  V30 5 1 5 6
M  V30 6 2 6 7
M  V30 7 1 7 8
M  V30 8 2 8 9
M  V30 9 1 7 10
M  V30 10 2 10 11
M  V30 11 1 11 12
M  V30 12 2 12 13
M  V30 13 1 13 14
M  V30 14 2 14 15
M  V30 15 1 15 16
M  V30 16 2 16 17
M  V30 17 1 15 18
M  V30 18 1 18 19
M  V30 19 2 18 20 CFG=2
M  V30 20 1 9 4
M  V30 21 1 17 12
M  V30 22 1 1 21
M  V30 23 1 1 22
M  V30 24 1 3 23
M  V30 25 1 5 24
M  V30 26 1 6 25
M  V30 27 1 8 26
M  V30 28 1 9 27
M  V30 29 1 10 28
M  V30 30 1 11 29
M  V30 31 1 13 30
M  V30 32 1 14 31
M  V30 33 1 16 32
M  V30 34 1 17 33
M  V30 35 1 19 34
M  V30 36 1 19 35
M  V30 37 1 20 36
M  V30 END BOND
M  V30 END CTAB
M  END
