
     RDKit          3D

  0  0  0  0  0  0  0  0  0  0999 V3000
M  V30 BEGIN CTAB
M  V30 COUNTS 41 41 0 0 0
M  V30 BEGIN ATOM
M  V30 1 N -2.0999 2.47538 -0.0124031 0
M  V30 2 C -2.06054 1.30061 0.801296 0
M  V30 3 C -2.64425 0.086224 0.160036 0
M  V30 4 C -2.04062 -0.442295 -1.05359 0
M  V30 5 N -0.660366 -0.910764 -0.99846 0
M  V30 6 C 0.477595 -0.201737 -1.32411 0
M  V30 7 O 0.318143 0.972007 -1.76564 0
M  V30 8 C 1.84996 -0.660763 -1.2133 0
M  V30 9 C 2.67869 0.14003 -0.263078 0
M  V30 10 C 3.995 -0.272279 -0.106203 0
M  V30 11 C 4.85228 0.398103 0.757271 0
M  V30 12 C 4.42572 1.49025 1.48366 0
M  V30 13 C 3.11745 1.90009 1.32791 0
M  V30 14 C 2.27153 1.20909 0.452064 0
M  V30 15 N 2.08085 -2.03056 -0.857829 0
M  V30 16 C -0.54996 -2.28418 -0.537311 0
M  V30 17 C -2.87457 -0.960131 1.24273 0
M  V30 18 C -4.08739 0.510985 -0.227348 0
M  V30 19 H -2.48859 2.34623 -0.951361 0
M  V30 20 H -1.22157 3.03936 0.0185146 0
M  V30 21 H -1.01781 1.13096 1.15412 0
M  V30 22 H -2.64232 1.55065 1.74062 0
M  V30 23 H -2.06427 0.314079 -1.89407 0
M  V30 24 H -2.65897 -1.28726 -1.44632 0
M  V30 25 H 2.32523 -0.568254 -2.25678 0
M  V30 26 H 4.40686 -1.11596 -0.636609 0
M  V30 27 H 5.87996 0.0669302 0.872227 0
M  V30 28 H 5.11968 1.99261 2.14985 0
M  V30 29 H 2.75913 2.74886 1.88243 0
M  V30 30 H 1.27815 1.56121 0.372339 0
M  V30 31 H 2.81021 -2.50795 -1.40903 0
M  V30 32 H 2.32594 -2.07928 0.152107 0
M  V30 33 H -0.0347627 -2.26938 0.441223 0
M  V30 34 H -0.153303 -2.98896 -1.27647 0
M  V30 35 H -1.60543 -2.68972 -0.355169 0
M  V30 36 H -3.48434 -1.79552 0.871957 0
M  V30 37 H -1.91972 -1.34578 1.64612 0
M  V30 38 H -3.42385 -0.467953 2.06426 0
M  V30 39 H -4.63776 -0.448212 -0.406054 0
M  V30 40 H -4.03553 1.03577 -1.18347 0
M  V30 41 H -4.56656 1.05749 0.583867 0
M  V30 END ATOM
M  V30 BEGIN BOND
M  V30 1 1 1 2
M  V30 2 1 2 3
M  V30 3 1 3 4
M  V30 4 1 4 5
M  V30 5 1 5 6
M  V30 6 2 6 7
M  V30 7 1 6 8
M  V30 8 1 8 9
M  V30 9 2 9 10
M  V30 10 1 10 11
M  V30 11 2 11 12
M  V30 12 1 12 13
M  V30 13 2 13 14
M  V30 14 1 8 15
M  V30 15 1 5 16
M  V30 16 1 3 17
M  V30 17 1 3 18
M  V30 18 1 14 9
M  V30 19 1 1 19
M  V30 20 1 1 20
M  V30 21 1 2 21
M  V30 22 1 2 22
M  V30 23 1 4 23
M  V30 24 1 4 24
M  V30 25 1 8 25
M  V30 26 1 10 26
M  V30 27 1 11 27
M  V30 28 1 12 28
M  V30 29 1 13 29
M  V30 30 1 14 30
M  V30 31 1 15 31
M  V30 32 1 15 32
M  V30 33 1 16 33
M  V30 34 1 16 34
M  V30 35 1 16 35
M  V30 36 1 17 36
M  V30 37 1 17 37
M  V30 38 1 17 38
M  V30 39 1 18 39
M  V30 40 1 18 40
M  V30 41 1 18 41
M  V30 END BOND
M  V30 END CTAB
M  END
