
     RDKit          3D

  0  0  0  0  0  0  0  0  0  0999 V3000
M  V30 BEGIN CTAB
M  V30 COUNTS 46 48 0 0 0
M  V30 BEGIN ATOM
M  V30 1 N -4.54487 0.900509 0.8664 0
M  V30 2 C -3.71552 1.62928 -0.0442973 0
M  V30 3 C -4.04784 1.32356 -1.50162 0
M  V30 4 C -3.32996 0.017864 -1.74082 0
M  V30 5 C -2.01103 0.226172 -1.05044 0
M  V30 6 C -2.26321 1.28512 0.028094 0
M  V30 7 C -1.90016 0.588175 1.34741 0
M  V30 8 N -0.930747 -0.391889 0.84911 0
M  V30 9 C -1.62307 -1.02148 -0.24387 0
M  V30 10 C 0.354667 -0.680569 1.3222 0
M  V30 11 O 0.73113 -0.0295118 2.35221 0
M  V30 12 C 1.18579 -1.66834 0.65122 0
M  V30 13 C 1.83904 -1.259 -0.622709 0
M  V30 14 C 2.74631 -0.126302 -0.519081 0
M  V30 15 C 3.99121 -0.258002 0.0431502 0
M  V30 16 C 4.86984 0.809296 0.151506 0
M  V30 17 C 4.51072 2.03982 -0.307184 0
M  V30 18 C 3.26816 2.20597 -0.877009 0
M  V30 19 C 2.40557 1.12613 -0.975417 0
M  V30 20 N 2.58137 -2.43907 -1.10273 0
M  V30 21 C 2.17685 -2.21079 1.67051 0
M  V30 22 H -5.4101 1.49254 1.03243 0
M  V30 23 H -4.88196 0.00302177 0.469673 0
M  V30 24 H -3.88482 2.7335 0.073594 0
M  V30 25 H -5.14434 1.22859 -1.60983 0
M  V30 26 H -3.59901 2.09994 -2.13356 0
M  V30 27 H -3.12795 -0.184977 -2.80313 0
M  V30 28 H -3.89795 -0.846181 -1.3376 0
M  V30 29 H -1.19602 0.531548 -1.70496 0
M  V30 30 H -1.6308 2.16766 -0.129556 0
M  V30 31 H -1.45746 1.27793 2.06673 0
M  V30 32 H -2.77792 0.0360056 1.70028 0
M  V30 33 H -2.55913 -1.45218 0.20887 0
M  V30 34 H -1.07811 -1.76374 -0.806514 0
M  V30 35 H 0.516077 -2.54951 0.416943 0
M  V30 36 H 1.06817 -1.0995 -1.40127 0
M  V30 37 H 4.3129 -1.20932 0.416001 0
M  V30 38 H 5.85461 0.679252 0.602701 0
M  V30 39 H 5.21292 2.88313 -0.218182 0
M  V30 40 H 3.00022 3.18441 -1.23428 0
M  V30 41 H 1.43657 1.3086 -1.43293 0
M  V30 42 H 3.58902 -2.2781 -1.16089 0
M  V30 43 H 2.26369 -3.29929 -0.651304 0
M  V30 44 H 1.5652 -2.72505 2.45489 0
M  V30 45 H 2.65706 -1.34974 2.17496 0
M  V30 46 H 2.87493 -2.93546 1.25915 0
M  V30 END ATOM
M  V30 BEGIN BOND
M  V30 1 1 1 2
M  V30 2 1 2 3
M  V30 3 1 3 4
M  V30 4 1 4 5
M  V30 5 1 5 6
M  V30 6 1 6 7
M  V30 7 1 7 8
M  V30 8 1 8 9
M  V30 9 1 8 10
M  V30 10 2 10 11
M  V30 11 1 10 12
M  V30 12 1 12 13
M  V30 13 1 13 14
M  V30 14 2 14 15
M  V30 15 1 15 16
M  V30 16 2 16 17
M  V30 17 1 17 18
M  V30 18 2 18 19
M  V30 19 1 13 20
M  V30 20 1 12 21
M  V30 21 1 6 2
M  V30 22 1 19 14
M  V30 23 1 9 5
M  V30 24 1 1 22
M  V30 25 1 1 23
M  V30 26 1 2 24
M  V30 27 1 3 25
M  V30 28 1 3 26
M  V30 29 1 4 27
M  V30 30 1 4 28
M  V30 31 1 5 29
M  V30 32 1 6 30
M  V30 33 1 7 31
M  V30 34 1 7 32
M  V30 35 1 9 33
M  V30 36 1 9 34
M  V30 37 1 12 35
M  V30 38 1 13 36
M  V30 39 1 15 37
M  V30 40 1 16 38
M  V30 41 1 17 39
M  V30 42 1 18 40
M  V30 43 1 19 41
M  V30 44 1 20 42
M  V30 45 1 20 43
M  V30 46 1 21 44
M  V30 47 1 21 45
M  V30 48 1 21 46
M  V30 END BOND
M  V30 END CTAB
M  END
