
     RDKit          3D

  0  0  0  0  0  0  0  0  0  0999 V3000
M  V30 BEGIN CTAB
M  V30 COUNTS 22 22 0 0 0
M  V30 BEGIN ATOM
M  V30 1 C 2.97512 -1.07943 0.127905 0
M  V30 2 C 2.27564 0.260796 0.122563 0
M  V30 3 C 0.795437 0.0434609 0.04066 0
M  V30 4 N 0.119325 -1.11807 -0.0212333 0
M  V30 5 C -1.20279 -0.907588 -0.0851016 0
M  V30 6 C -1.36944 0.461316 -0.0622394 0
M  V30 7 N -0.135541 1.01433 0.0146354 0
M  V30 8 N 0.158325 2.37537 0.0612447 0
M  V30 9 N -2.55585 1.22447 -0.106385 0
M  V30 10 C -2.311 -1.88681 -0.165251 0
M  V30 11 H 2.95933 -1.43303 -0.935472 0
M  V30 12 H 3.99216 -0.974958 0.511064 0
M  V30 13 H 2.38918 -1.7925 0.731992 0
M  V30 14 H 2.56606 0.836073 -0.773047 0
M  V30 15 H 2.54887 0.767305 1.0708 0
M  V30 16 H 0.0220861 2.8706 0.962448 0
M  V30 17 H 0.495531 2.83963 -0.784614 0
M  V30 18 H -2.94876 1.60941 0.764343 0
M  V30 19 H -3.01242 1.3849 -1.01605 0
M  V30 20 H -2.6512 -2.16782 0.867695 0
M  V30 21 H -1.9346 -2.82257 -0.618371 0
M  V30 22 H -3.17546 -1.50487 -0.707584 0
M  V30 END ATOM
M  V30 BEGIN BOND
M  V30 1 1 1 2
M  V30 2 1 2 3
M  V30 3 2 3 4
M  V30 4 1 4 5
M  V30 5 2 5 6
M  V30 6 1 6 7
M  V30 7 1 7 8
M  V30 8 1 6 9
M  V30 9 1 5 10
M  V30 10 1 7 3
M  V30 11 1 1 11
M  V30 12 1 1 12
M  V30 13 1 1 13
M  V30 14 1 2 14
M  V30 15 1 2 15
M  V30 16 1 8 16
M  V30 17 1 8 17
M  V30 18 1 9 18
M  V30 19 1 9 19
M  V30 20 1 10 20
M  V30 21 1 10 21
M  V30 22 1 10 22
M  V30 END BOND
M  V30 END CTAB
M  END
