
     RDKit          3D

  0  0  0  0  0  0  0  0  0  0999 V3000
M  V30 BEGIN CTAB
M  V30 COUNTS 16 15 0 0 0
M  V30 BEGIN ATOM
M  V30 1 N 3.22144 -0.201186 -0.568035 0
M  V30 2 O 2.01808 -0.343534 -1.1153 0
M  V30 3 C 1.01483 -0.0602756 -0.190726 0
M  V30 4 C -0.360282 -0.230408 -0.841741 0
M  V30 5 S -1.54823 0.156071 0.428112 0
M  V30 6 O -1.26793 -0.765839 1.58152 0
M  V30 7 O -1.34063 1.55908 0.914955 0
M  V30 8 N -3.16354 0.0136838 -0.139215 0
M  V30 9 H 3.2963 -0.59947 0.394185 0
M  V30 10 H 3.54634 0.807042 -0.535968 0
M  V30 11 H 1.14848 0.96455 0.196484 0
M  V30 12 H 1.09869 -0.814985 0.616861 0
M  V30 13 H -0.424512 0.456725 -1.7025 0
M  V30 14 H -0.482522 -1.27988 -1.1533 0
M  V30 15 H -3.50202 0.962249 -0.426452 0
M  V30 16 H -3.25449 -0.623823 -0.956602 0
M  V30 END ATOM
M  V30 BEGIN BOND
M  V30 1 1 1 2
M  V30 2 1 2 3
M  V30 3 1 3 4
M  V30 4 1 4 5
M  V30 5 2 5 6
M  V30 6 2 5 7
M  V30 7 1 5 8
M  V30 8 1 1 9
M  V30 9 1 1 10
M  V30 10 1 3 11
M  V30 11 1 3 12
M  V30 12 1 4 13
M  V30 13 1 4 14
M  V30 14 1 8 15
M  V30 15 1 8 16
M  V30 END BOND
M  V30 END CTAB
M  END
