
     RDKit          3D

  0  0  0  0  0  0  0  0  0  0999 V3000
M  V30 BEGIN CTAB
M  V30 COUNTS 44 47 0 0 0
M  V30 BEGIN ATOM
M  V30 1 N -7.79576 -0.039483 1.11275 0
M  V30 2 C -6.38858 0.00151207 0.842668 0
M  V30 3 C -5.76264 -1.00174 0.154991 0
M  V30 4 C -4.39457 -0.934694 -0.0927923 0
M  V30 5 C -3.62361 0.125298 0.335307 0
M  V30 6 C -4.27334 1.12435 1.02561 0
M  V30 7 C -5.63974 1.07217 1.28136 0
M  V30 8 C -2.18245 0.237746 0.0991839 0
M  V30 9 C -1.37624 -0.708636 0.992633 0
M  V30 10 C 0.0633594 -0.275949 0.866271 0
M  V30 11 C 0.467953 -0.0945652 -0.549725 0
M  V30 12 C -0.471366 -0.0129254 -1.54748 0
M  V30 13 O -1.81085 -0.10156 -1.22353 0
M  V30 14 C 0.00302525 0.155539 -2.83001 0
M  V30 15 C 1.33197 0.244818 -3.16265 0
M  V30 16 C 2.26076 0.158774 -2.13124 0
M  V30 17 O 3.62871 0.240981 -2.39279 0
M  V30 18 C 4.51202 0.15773 -1.33862 0
M  V30 19 C 4.87274 1.23532 -0.561879 0
M  V30 20 C 5.76636 1.04879 0.472797 0
M  V30 21 C 6.31014 -0.18674 0.752984 0
M  V30 22 N 7.22764 -0.410969 1.80591 0
M  V30 23 C 5.92005 -1.23501 -0.0504037 0
M  V30 24 N 5.04582 -1.03627 -1.0576 0
M  V30 25 C 1.83249 -0.00956809 -0.834761 0
M  V30 26 H -8.2235 0.684926 1.71553 0
M  V30 27 H -8.41434 -0.77611 0.723559 0
M  V30 28 H -6.36751 -1.84957 -0.190306 0
M  V30 29 H -3.9032 -1.72863 -0.635934 0
M  V30 30 H -3.74794 1.99331 1.39902 0
M  V30 31 H -6.14698 1.85944 1.8246 0
M  V30 32 H -1.8282 1.25621 0.360648 0
M  V30 33 H -1.67387 -0.587271 2.05659 0
M  V30 34 H -1.54026 -1.75804 0.7125 0
M  V30 35 H 0.165691 0.702056 1.41902 0
M  V30 36 H 0.759721 -0.969802 1.39159 0
M  V30 37 H -0.774331 0.217404 -3.60842 0
M  V30 38 H 1.67295 0.374358 -4.15765 0
M  V30 39 H 4.4523 2.19756 -0.776937 0
M  V30 40 H 6.08054 1.88153 1.1162 0
M  V30 41 H 8.06593 -1.02171 1.72865 0
M  V30 42 H 7.03239 0.0776896 2.71147 0
M  V30 43 H 6.29672 -2.23301 0.0995004 0
M  V30 44 H 2.56997 -0.0752401 -0.0366777 0
M  V30 END ATOM
M  V30 BEGIN BOND
M  V30 1 1 1 2
M  V30 2 2 2 3
M  V30 3 1 3 4
M  V30 4 2 4 5
M  V30 5 1 5 6
M  V30 6 2 6 7
M  V30 7 1 5 8
M  V30 8 1 8 9
M  V30 9 1 9 10
M  V30 10 1 10 11
M  V30 11 2 11 12
M  V30 12 1 12 13
M  V30 13 1 12 14
M  V30 14 2 14 15
M  V30 15 1 15 16
M  V30 16 1 16 17
M  V30 17 1 17 18
M  V30 18 2 18 19
M  V30 19 1 19 20
M  V30 20 2 20 21
M  V30 21 1 21 22
M  V30 22 1 21 23
M  V30 23 2 23 24
M  V30 24 2 16 25
M  V30 25 1 7 2
M  V30 26 1 13 8
M  V30 27 1 24 18
M  V30 28 1 25 11
M  V30 29 1 1 26
M  V30 30 1 1 27
M  V30 31 1 3 28
M  V30 32 1 4 29
M  V30 33 1 6 30
M  V30 34 1 7 31
M  V30 35 1 8 32
M  V30 36 1 9 33
M  V30 37 1 9 34
M  V30 38 1 10 35
M  V30 39 1 10 36
M  V30 40 1 14 37
M  V30 41 1 15 38
M  V30 42 1 19 39
M  V30 43 1 20 40
M  V30 44 1 22 41
M  V30 45 1 22 42
M  V30 46 1 23 43
M  V30 47 1 25 44
M  V30 END BOND
M  V30 END CTAB
M  END
