
     RDKit          3D

  0  0  0  0  0  0  0  0  0  0999 V3000
M  V30 BEGIN CTAB
M  V30 COUNTS 46 47 0 0 0
M  V30 BEGIN ATOM
M  V30 1 C -5.28948 2.01984 2.06913 0
M  V30 2 O -4.09511 1.31155 1.99255 0
M  V30 3 C -3.72933 1.0876 0.65682 0 CFG=2
M  V30 4 O -3.72876 -0.26328 0.441364 0
M  V30 5 C -2.5243 -0.679552 -0.0542991 0 CFG=2
M  V30 6 C -2.22638 -2.03982 0.592765 0
M  V30 7 O -2.16158 -1.93422 1.96059 0
M  V30 8 C -1.47918 0.338815 0.347249 0 CFG=1
M  V30 9 O -0.514505 0.483221 -0.615668 0
M  V30 10 C 0.770399 0.30939 -0.185541 0 CFG=1
M  V30 11 O 1.29273 -0.87891 -0.738044 0
M  V30 12 C 2.57544 -1.12358 -0.238054 0 CFG=1
M  V30 13 C 2.99994 -2.47503 -0.790759 0
M  V30 14 N 4.3086 -2.86279 -0.35874 0
M  V30 15 C 3.5612 -0.0529109 -0.650493 0 CFG=1
M  V30 16 O 4.59195 -0.555143 -1.42912 0
M  V30 17 C 2.76465 1.02113 -1.37351 0 CFG=2
M  V30 18 O 3.55319 2.08854 -1.76179 0
M  V30 19 C 1.69552 1.46328 -0.362385 0 CFG=1
M  V30 20 N 1.09647 2.70161 -0.734198 0
M  V30 21 C -2.33638 1.61001 0.363094 0 CFG=1
M  V30 22 O -2.40111 2.20973 -0.883526 0
M  V30 23 H -5.13391 2.98399 1.55793 0
M  V30 24 H -5.4719 2.24621 3.1336 0
M  V30 25 H -6.14787 1.4666 1.684 0
M  V30 26 H -4.497 1.53895 -0.0178725 0
M  V30 27 H -2.55356 -0.784623 -1.14331 0
M  V30 28 H -2.9726 -2.77416 0.232211 0
M  V30 29 H -1.24147 -2.37863 0.220764 0
M  V30 30 H -2.61407 -2.69826 2.41769 0
M  V30 31 H -1.02863 0.114356 1.31471 0
M  V30 32 H 0.714163 0.0807398 0.920398 0
M  V30 33 H 2.55495 -1.20992 0.872552 0
M  V30 34 H 2.22926 -3.2168 -0.45765 0
M  V30 35 H 3.02909 -2.37568 -1.89978 0
M  V30 36 H 4.33077 -3.83823 0.06391 0
M  V30 37 H 4.68562 -2.24595 0.405481 0
M  V30 38 H 3.95951 0.451866 0.276607 0
M  V30 39 H 5.44238 -0.245438 -1.03315 0
M  V30 40 H 2.23278 0.527764 -2.19833 0
M  V30 41 H 3.26574 2.35158 -2.69129 0
M  V30 42 H 2.29132 1.66859 0.577385 0
M  V30 43 H 1.59875 3.53362 -0.408907 0
M  V30 44 H 0.73931 2.74639 -1.70903 0
M  V30 45 H -2.04575 2.29438 1.18231 0
M  V30 46 H -2.09085 1.55277 -1.54767 0
M  V30 END ATOM
M  V30 BEGIN BOND
M  V30 1 1 1 2
M  V30 2 1 2 3
M  V30 3 1 3 4
M  V30 4 1 4 5
M  V30 5 1 5 6
M  V30 6 1 6 7
M  V30 7 1 5 8
M  V30 8 1 8 9
M  V30 9 1 9 10
M  V30 10 1 10 11
M  V30 11 1 11 12
M  V30 12 1 12 13
M  V30 13 1 13 14
M  V30 14 1 12 15
M  V30 15 1 15 16
M  V30 16 1 15 17
M  V30 17 1 17 18
M  V30 18 1 17 19
M  V30 19 1 19 20
M  V30 20 1 8 21
M  V30 21 1 21 22
M  V30 22 1 21 3
M  V30 23 1 19 10
M  V30 24 1 1 23
M  V30 25 1 1 24
M  V30 26 1 1 25
M  V30 27 1 3 26 CFG=3
M  V30 28 1 5 27 CFG=3
M  V30 29 1 6 28
M  V30 30 1 6 29
M  V30 31 1 7 30
M  V30 32 1 8 31 CFG=1
M  V30 33 1 10 32 CFG=1
M  V30 34 1 12 33 CFG=1
M  V30 35 1 13 34
M  V30 36 1 13 35
M  V30 37 1 14 36
M  V30 38 1 14 37
M  V30 39 1 15 38 CFG=1
M  V30 40 1 16 39
M  V30 41 1 17 40 CFG=3
M  V30 42 1 18 41
M  V30 43 1 19 42 CFG=1
M  V30 44 1 20 43
M  V30 45 1 20 44
M  V30 46 1 21 45 CFG=1
M  V30 47 1 22 46
M  V30 END BOND
M  V30 END CTAB
M  END
