
     RDKit          3D

  0  0  0  0  0  0  0  0  0  0999 V3000
M  V30 BEGIN CTAB
M  V30 COUNTS 40 42 0 0 0
M  V30 BEGIN ATOM
M  V30 1 N -4.66673 -2.13259 -0.367878 0
M  V30 2 C -3.60385 -1.29924 -0.833034 0
M  V30 3 C -2.75255 -0.936262 0.368939 0
M  V30 4 N -1.6359 -0.0757828 0.0269871 0
M  V30 5 C -0.550049 -0.64736 -0.765944 0
M  V30 6 C 0.664641 0.15212 -0.868268 0 CFG=1
M  V30 7 N 0.683637 1.45479 -0.238822 0
M  V30 8 C -0.485418 2.01448 0.311419 0
M  V30 9 C -1.62951 1.27105 0.446662 0
M  V30 10 C -2.73831 1.87995 0.994362 0
M  V30 11 C -2.67881 3.20546 1.39071 0
M  V30 12 C -1.53252 3.951 1.25568 0
M  V30 13 C -0.43899 3.35417 0.716482 0
M  V30 14 C 1.94834 -0.477474 -0.546963 0
M  V30 15 C 2.09698 -1.69562 0.0207978 0
M  V30 16 C 3.38989 -2.19734 0.268308 0
M  V30 17 C 4.52601 -1.48664 -0.0498328 0
M  V30 18 C 4.35357 -0.245087 -0.628347 0
M  V30 19 C 3.09153 0.265008 -0.879974 0
M  V30 20 N 5.82934 -2.01502 0.215007 0
M  V30 21 H -4.64512 -3.11016 -0.686952 0
M  V30 22 H -4.89493 -2.06908 0.628364 0
M  V30 23 H -2.97606 -1.85444 -1.54237 0
M  V30 24 H -4.02924 -0.429712 -1.34962 0
M  V30 25 H -2.36494 -1.94138 0.737958 0
M  V30 26 H -3.36288 -0.578133 1.21565 0
M  V30 27 H -0.448629 -1.68435 -0.349055 0
M  V30 28 H -1.01726 -0.755788 -1.8086 0
M  V30 29 H 0.784168 0.42306 -1.99468 0
M  V30 30 H 1.60579 2.00712 -0.192854 0
M  V30 31 H -3.67542 1.3616 1.12627 0
M  V30 32 H -3.54274 3.69007 1.82329 0
M  V30 33 H -1.46332 4.99656 1.56233 0
M  V30 34 H 0.475992 3.90378 0.59132 0
M  V30 35 H 1.23429 -2.27328 0.287358 0
M  V30 36 H 3.49815 -3.15756 0.713506 0
M  V30 37 H 5.26778 0.303012 -0.872988 0
M  V30 38 H 3.03376 1.23753 -1.33857 0
M  V30 39 H 6.66824 -1.56901 -0.209945 0
M  V30 40 H 5.98102 -2.83944 0.823306 0
M  V30 END ATOM
M  V30 BEGIN BOND
M  V30 1 1 1 2
M  V30 2 1 2 3
M  V30 3 1 3 4
M  V30 4 1 4 5
M  V30 5 1 5 6
M  V30 6 1 6 7
M  V30 7 1 7 8
M  V30 8 2 8 9
M  V30 9 1 9 10
M  V30 10 2 10 11
M  V30 11 1 11 12
M  V30 12 2 12 13
M  V30 13 1 6 14
M  V30 14 2 14 15
M  V30 15 1 15 16
M  V30 16 2 16 17
M  V30 17 1 17 18
M  V30 18 2 18 19
M  V30 19 1 17 20
M  V30 20 1 9 4
M  V30 21 1 19 14
M  V30 22 1 13 8
M  V30 23 1 1 21
M  V30 24 1 1 22
M  V30 25 1 2 23
M  V30 26 1 2 24
M  V30 27 1 3 25
M  V30 28 1 3 26
M  V30 29 1 5 27
M  V30 30 1 5 28
M  V30 31 1 6 29 CFG=3
M  V30 32 1 7 30
M  V30 33 1 10 31
M  V30 34 1 11 32
M  V30 35 1 12 33
M  V30 36 1 13 34
M  V30 37 1 15 35
M  V30 38 1 16 36
M  V30 39 1 18 37
M  V30 40 1 19 38
M  V30 41 1 20 39
M  V30 42 1 20 40
M  V30 END BOND
M  V30 END CTAB
M  END
