
     RDKit          3D

  0  0  0  0  0  0  0  0  0  0999 V3000
M  V30 BEGIN CTAB
M  V30 COUNTS 35 36 0 0 0
M  V30 BEGIN ATOM
M  V30 1 C 5.37275 0.206382 0.504107 0
M  V30 2 C 3.88023 0.11473 0.537494 0
M  V30 3 C 3.27789 -1.13481 0.462596 0
M  V30 4 C 1.90945 -1.22778 0.492559 0
M  V30 5 C 1.26035 -2.55948 0.412931 0
M  V30 6 C 1.16774 -0.0717902 0.596721 0
M  V30 7 C 1.77238 1.16852 0.670887 0
M  V30 8 C 3.1479 1.25752 0.640443 0
M  V30 9 N -0.250776 -0.110972 0.631936 0
M  V30 10 C -0.983004 0.331955 -0.331994 0
M  V30 11 N -0.360051 0.873805 -1.45994 0
M  V30 12 C -2.43133 0.246691 -0.200105 0
M  V30 13 C -3.04309 -0.288381 0.913771 0
M  V30 14 C -4.41608 -0.373724 1.04833 0
M  V30 15 C -5.22228 0.094121 0.0290886 0
M  V30 16 C -4.65354 0.630901 -1.08987 0
M  V30 17 C -3.26751 0.707571 -1.20559 0
M  V30 18 N -2.63942 1.25881 -2.35321 0
M  V30 19 H 5.67479 1.24024 0.214136 0
M  V30 20 H 5.79828 -0.467663 -0.269539 0
M  V30 21 H 5.79515 -0.00189529 1.51338 0
M  V30 22 H 3.91277 -2.01155 0.381648 0
M  V30 23 H 0.616934 -2.63996 -0.506257 0
M  V30 24 H 2.02196 -3.34758 0.328832 0
M  V30 25 H 0.622762 -2.76393 1.29794 0
M  V30 26 H 1.19371 2.06904 0.752052 0
M  V30 27 H 3.64671 2.21553 0.696883 0
M  V30 28 H -0.231985 0.266344 -2.31025 0
M  V30 29 H -0.000667484 1.85992 -1.5312 0
M  V30 30 H -2.37495 -0.652677 1.70881 0
M  V30 31 H -4.8414 -0.811093 1.96134 0
M  V30 32 H -6.30707 0.0152644 0.159653 0
M  V30 33 H -5.25647 1.00629 -1.90619 0
M  V30 34 H -2.46615 0.651754 -3.18164 0
M  V30 35 H -2.326 2.24793 -2.44441 0
M  V30 END ATOM
M  V30 BEGIN BOND
M  V30 1 1 1 2
M  V30 2 2 2 3
M  V30 3 1 3 4
M  V30 4 1 4 5
M  V30 5 2 4 6
M  V30 6 1 6 7
M  V30 7 2 7 8
M  V30 8 1 6 9
M  V30 9 2 9 10 CFG=2
M  V30 10 1 10 11
M  V30 11 1 10 12
M  V30 12 2 12 13
M  V30 13 1 13 14
M  V30 14 2 14 15
M  V30 15 1 15 16
M  V30 16 2 16 17
M  V30 17 1 17 18
M  V30 18 1 8 2
M  V30 19 1 17 12
M  V30 20 1 1 19
M  V30 21 1 1 20
M  V30 22 1 1 21
M  V30 23 1 3 22
M  V30 24 1 5 23
M  V30 25 1 5 24
M  V30 26 1 5 25
M  V30 27 1 7 26
M  V30 28 1 8 27
M  V30 29 1 11 28
M  V30 30 1 11 29
M  V30 31 1 13 30
M  V30 32 1 14 31
M  V30 33 1 15 32
M  V30 34 1 16 33
M  V30 35 1 18 34
M  V30 36 1 18 35
M  V30 END BOND
M  V30 END CTAB
M  END
