
     RDKit          3D

  0  0  0  0  0  0  0  0  0  0999 V3000
M  V30 BEGIN CTAB
M  V30 COUNTS 37 39 0 0 0
M  V30 BEGIN ATOM
M  V30 1 N 2.33389 0.0364559 -2.03587 0
M  V30 2 C 2.93281 -0.0216153 -0.726136 0
M  V30 3 N 4.23879 0.124978 -0.559239 0
M  V30 4 C 4.83871 0.0703439 0.636315 0
M  V30 5 C 4.08755 -0.148586 1.77569 0
M  V30 6 C 2.73321 -0.301016 1.6083 0
M  V30 7 C 2.11977 -0.242165 0.359992 0
M  V30 8 C 0.676365 -0.408633 0.329325 0 CFG=2
M  V30 9 C 0.169988 -1.42369 -0.68408 0
M  V30 10 C -1.20747 -1.86366 -0.240294 0
M  V30 11 N -2.01042 -0.732985 0.17308 0
M  V30 12 C -1.4884 0.607515 0.0212369 0
M  V30 13 C -0.120335 0.820911 0.112782 0
M  V30 14 C 0.357394 2.08976 -0.0122178 0
M  V30 15 C -0.505518 3.15253 -0.228132 0
M  V30 16 C -1.87315 2.9373 -0.320557 0
M  V30 17 C -2.36927 1.6384 -0.192924 0
M  V30 18 S -3.57493 -1.00864 0.836252 0
M  V30 19 O -4.15012 0.135872 1.57686 0
M  V30 20 O -3.33108 -2.07212 1.92783 0
M  V30 21 N -4.55106 -1.75724 -0.302992 0
M  V30 22 H 2.17985 -0.784948 -2.62243 0
M  V30 23 H 2.059 0.970415 -2.37528 0
M  V30 24 H 5.91707 0.190789 0.779927 0
M  V30 25 H 4.5201 -0.200383 2.74797 0
M  V30 26 H 2.13422 -0.474411 2.50963 0
M  V30 27 H 0.331233 -0.810341 1.31298 0
M  V30 28 H -0.00525404 -0.932886 -1.6849 0
M  V30 29 H 0.801726 -2.31699 -0.75133 0
M  V30 30 H -1.16285 -2.63997 0.548484 0
M  V30 31 H -1.73207 -2.31305 -1.11774 0
M  V30 32 H 1.43306 2.24244 0.062672 0
M  V30 33 H -0.101055 4.16278 -0.325361 0
M  V30 34 H -2.56541 3.7558 -0.48968 0
M  V30 35 H -3.42355 1.42445 -0.265046 0
M  V30 36 H -4.1596 -2.02911 -1.19066 0
M  V30 37 H -5.53317 -1.8783 -0.114948 0
M  V30 END ATOM
M  V30 BEGIN BOND
M  V30 1 1 1 2
M  V30 2 2 2 3
M  V30 3 1 3 4
M  V30 4 2 4 5
M  V30 5 1 5 6
M  V30 6 2 6 7
M  V30 7 1 7 8
M  V30 8 1 8 9
M  V30 9 1 9 10
M  V30 10 1 10 11
M  V30 11 1 11 12
M  V30 12 2 12 13
M  V30 13 1 13 14
M  V30 14 2 14 15
M  V30 15 1 15 16
M  V30 16 2 16 17
M  V30 17 1 11 18
M  V30 18 2 18 19
M  V30 19 2 18 20
M  V30 20 1 18 21
M  V30 21 1 7 2
M  V30 22 1 13 8
M  V30 23 1 17 12
M  V30 24 1 1 22
M  V30 25 1 1 23
M  V30 26 1 4 24
M  V30 27 1 5 25
M  V30 28 1 6 26
M  V30 29 1 8 27 CFG=1
M  V30 30 1 9 28
M  V30 31 1 9 29
M  V30 32 1 10 30
M  V30 33 1 10 31
M  V30 34 1 14 32
M  V30 35 1 15 33
M  V30 36 1 16 34
M  V30 37 1 17 35
M  V30 38 1 21 36
M  V30 39 1 21 37
M  V30 END BOND
M  V30 END CTAB
M  END
