
     RDKit          3D

  0  0  0  0  0  0  0  0  0  0999 V3000
M  V30 BEGIN CTAB
M  V30 COUNTS 35 36 0 0 0
M  V30 BEGIN ATOM
M  V30 1 N 4.7703 1.37674 -0.859941 0
M  V30 2 C 3.79898 1.12617 0.148686 0
M  V30 3 C 2.49477 0.652173 -0.442041 0
M  V30 4 N 1.54892 0.413066 0.584585 0
M  V30 5 C 1.86376 -0.696329 1.39067 0
M  V30 6 C 1.09884 -1.95784 1.04551 0
M  V30 7 N -0.299909 -1.64172 1.0953 0
M  V30 8 C -0.568198 -0.705044 0.0206059 0 CFG=2
M  V30 9 C 0.18168 0.566074 0.20442 0
M  V30 10 C -2.03247 -0.494919 0.014758 0
M  V30 11 C -2.83981 -1.6332 0.11443 0
M  V30 12 C -4.20751 -1.55433 0.120878 0
M  V30 13 N -4.80028 -0.360007 0.0297845 0
M  V30 14 C -4.04275 0.744958 -0.0669182 0
M  V30 15 C -2.6603 0.707549 -0.0767892 0
M  V30 16 N -4.69873 1.98991 -0.159841 0
M  V30 17 H 5.23209 2.24157 -0.785162 0
M  V30 18 H 5.21751 0.587642 -1.2442 0
M  V30 19 H 3.61168 2.0633 0.722038 0
M  V30 20 H 4.25943 0.429727 0.865334 0
M  V30 21 H 2.15812 1.38624 -1.20552 0
M  V30 22 H 2.72305 -0.308541 -0.958216 0
M  V30 23 H 1.59027 -0.448077 2.45305 0
M  V30 24 H 2.93187 -0.978703 1.31833 0
M  V30 25 H 1.35499 -2.33614 0.0360701 0
M  V30 26 H 1.32497 -2.70061 1.84735 0
M  V30 27 H -0.529859 -1.15817 1.98004 0
M  V30 28 H -0.252747 -1.15089 -0.960461 0
M  V30 29 H -0.296723 1.29808 0.890814 0
M  V30 30 H 0.184854 1.09132 -0.797899 0
M  V30 31 H -2.36092 -2.60565 0.188953 0
M  V30 32 H -4.82778 -2.42998 0.197213 0
M  V30 33 H -2.05462 1.60232 -0.154648 0
M  V30 34 H -5.27871 2.20337 -0.982295 0
M  V30 35 H -4.59478 2.67996 0.595031 0
M  V30 END ATOM
M  V30 BEGIN BOND
M  V30 1 1 1 2
M  V30 2 1 2 3
M  V30 3 1 3 4
M  V30 4 1 4 5
M  V30 5 1 5 6
M  V30 6 1 6 7
M  V30 7 1 7 8
M  V30 8 1 8 9
M  V30 9 1 8 10
M  V30 10 2 10 11
M  V30 11 1 11 12
M  V30 12 2 12 13
M  V30 13 1 13 14
M  V30 14 2 14 15
M  V30 15 1 14 16
M  V30 16 1 9 4
M  V30 17 1 15 10
M  V30 18 1 1 17
M  V30 19 1 1 18
M  V30 20 1 2 19
M  V30 21 1 2 20
M  V30 22 1 3 21
M  V30 23 1 3 22
M  V30 24 1 5 23
M  V30 25 1 5 24
M  V30 26 1 6 25
M  V30 27 1 6 26
M  V30 28 1 7 27
M  V30 29 1 8 28 CFG=3
M  V30 30 1 9 29
M  V30 31 1 9 30
M  V30 32 1 11 31
M  V30 33 1 12 32
M  V30 34 1 15 33
M  V30 35 1 16 34
M  V30 36 1 16 35
M  V30 END BOND
M  V30 END CTAB
M  END
