
     RDKit          3D

  0  0  0  0  0  0  0  0  0  0999 V3000
M  V30 BEGIN CTAB
M  V30 COUNTS 39 41 0 0 0
M  V30 BEGIN ATOM
M  V30 1 C -4.23628 1.51372 1.19844 0
M  V30 2 C -3.57357 1.60066 -0.188486 0
M  V30 3 C -3.1 0.282201 -0.568792 0
M  V30 4 C -4.06699 -0.592029 -1.01476 0
M  V30 5 C -5.46928 -0.14927 -1.07676 0
M  V30 6 N -6.57515 0.180267 -1.13406 0
M  V30 7 C -3.84162 -1.88506 -1.42226 0
M  V30 8 N -4.85627 -2.75886 -1.87555 0
M  V30 9 N -2.56935 -2.29538 -1.3687 0
M  V30 10 C -1.57678 -1.46347 -0.932956 0
M  V30 11 C -1.76936 -0.173304 -0.521204 0
M  V30 12 C -0.679029 0.506342 -0.118382 0
M  V30 13 N -0.67412 1.88123 0.363413 0
M  V30 14 C 0.514425 -0.147623 -0.157178 0
M  V30 15 S 0.121551 -1.6871 -0.745898 0
M  V30 16 C 1.87889 0.315329 0.212618 0
M  V30 17 O 1.97995 1.48983 0.629995 0
M  V30 18 N 2.95725 -0.577699 0.0741696 0
M  V30 19 C 4.29185 -0.343817 0.365065 0
M  V30 20 C 5.26222 -1.28387 -0.0383348 0
M  V30 21 C 6.59149 -1.14109 0.212991 0
M  V30 22 C 7.04383 -0.0337174 0.893511 0
M  V30 23 C 6.14298 0.907589 1.30683 0
M  V30 24 C 4.77557 0.740517 1.03727 0
M  V30 25 H -5.22007 1.98997 1.2245 0
M  V30 26 H -4.23403 0.464057 1.56628 0
M  V30 27 H -3.60836 2.07745 1.95084 0
M  V30 28 H -2.96471 2.46105 -0.183071 0
M  V30 29 H -4.44849 1.85688 -0.881232 0
M  V30 30 H -5.77937 -2.43851 -2.19885 0
M  V30 31 H -4.6809 -3.78515 -1.89116 0
M  V30 32 H -0.832577 2.14945 1.33143 0
M  V30 33 H -0.494039 2.60555 -0.356169 0
M  V30 34 H 2.70621 -1.55715 -0.300614 0
M  V30 35 H 4.92986 -2.14902 -0.567988 0
M  V30 36 H 7.33843 -1.88312 -0.107905 0
M  V30 37 H 8.10874 0.0490064 1.07673 0
M  V30 38 H 6.50388 1.77069 1.83824 0
M  V30 39 H 4.10322 1.50343 1.389 0
M  V30 END ATOM
M  V30 BEGIN BOND
M  V30 1 1 1 2
M  V30 2 1 2 3
M  V30 3 2 3 4
M  V30 4 1 4 5
M  V30 5 3 5 6
M  V30 6 1 4 7
M  V30 7 1 7 8
M  V30 8 2 7 9
M  V30 9 1 9 10
M  V30 10 2 10 11
M  V30 11 1 11 12
M  V30 12 1 12 13
M  V30 13 2 12 14
M  V30 14 1 14 15
M  V30 15 1 14 16
M  V30 16 2 16 17
M  V30 17 1 16 18
M  V30 18 1 18 19
M  V30 19 2 19 20
M  V30 20 1 20 21
M  V30 21 2 21 22
M  V30 22 1 22 23
M  V30 23 2 23 24
M  V30 24 1 11 3
M  V30 25 1 24 19
M  V30 26 1 15 10
M  V30 27 1 1 25
M  V30 28 1 1 26
M  V30 29 1 1 27
M  V30 30 1 2 28
M  V30 31 1 2 29
M  V30 32 1 8 30
M  V30 33 1 8 31
M  V30 34 1 13 32
M  V30 35 1 13 33
M  V30 36 1 18 34
M  V30 37 1 20 35
M  V30 38 1 21 36
M  V30 39 1 22 37
M  V30 40 1 23 38
M  V30 41 1 24 39
M  V30 END BOND
M  V30 END CTAB
M  END
