
     RDKit          3D

  0  0  0  0  0  0  0  0  0  0999 V3000
M  V30 BEGIN CTAB
M  V30 COUNTS 43 44 0 0 0
M  V30 BEGIN ATOM
M  V30 1 N -6.49593 0.263884 1.2537 0
M  V30 2 C -5.39036 0.14766 0.377198 0
M  V30 3 C -5.55187 0.454672 -0.931171 0
M  V30 4 C -4.48739 0.357302 -1.75766 0
M  V30 5 C -3.24714 -0.0572825 -1.23956 0
M  V30 6 C -3.01835 -0.377514 0.0663252 0
M  V30 7 C -4.15598 -0.26383 0.883209 0
M  V30 8 N -1.75952 -0.800579 0.556172 0
M  V30 9 C -0.573033 -1.06955 -0.14712 0
M  V30 10 S 0.623154 -1.88221 0.750655 0
M  V30 11 N -0.135764 -0.654273 -1.42286 0
M  V30 12 C 1.15616 -1.0953 -1.97802 0
M  V30 13 C 2.31662 -0.542049 -1.27505 0
M  V30 14 C 3.53896 -1.20352 -1.38214 0
M  V30 15 C 4.68186 -0.733868 -0.770546 0
M  V30 16 C 4.66088 0.424659 -0.0189548 0
M  V30 17 C 3.46067 1.08769 0.0958872 0
M  V30 18 C 2.31996 0.611521 -0.519274 0
M  V30 19 S 6.1251 1.03703 0.75153 0
M  V30 20 O 7.06992 -0.126393 0.895639 0
M  V30 21 O 5.74349 1.62378 2.06827 0
M  V30 22 N 6.83337 2.24028 -0.302187 0
M  V30 23 C -1.60351 -0.990496 1.99536 0
M  V30 24 O -1.03039 -2.02185 2.44983 0
M  V30 25 C -2.06553 -0.0256914 2.97566 0
M  V30 26 H -6.8838 1.21778 1.50132 0
M  V30 27 H -6.98566 -0.555125 1.69596 0
M  V30 28 H -6.52872 0.774263 -1.30745 0
M  V30 29 H -4.61508 0.599061 -2.81262 0
M  V30 30 H -2.51516 -0.134567 -2.00065 0
M  V30 31 H -4.09942 -0.54514 1.89795 0
M  V30 32 H -0.68396 0.0172952 -1.97937 0
M  V30 33 H 1.17172 -0.771511 -3.06091 0
M  V30 34 H 1.14948 -2.19089 -2.00163 0
M  V30 35 H 3.58199 -2.11239 -1.96592 0
M  V30 36 H 5.63227 -1.25221 -0.856644 0
M  V30 37 H 3.45201 1.9968 0.69212 0
M  V30 38 H 1.3745 1.14178 -0.425351 0
M  V30 39 H 7.19985 1.7301 -1.12107 0
M  V30 40 H 6.08137 2.89625 -0.620375 0
M  V30 41 H -1.10378 0.309734 3.5235 0
M  V30 42 H -2.48264 0.909541 2.60104 0
M  V30 43 H -2.76036 -0.434815 3.75241 0
M  V30 END ATOM
M  V30 BEGIN BOND
M  V30 1 1 1 2
M  V30 2 2 2 3
M  V30 3 1 3 4
M  V30 4 2 4 5
M  V30 5 1 5 6
M  V30 6 2 6 7
M  V30 7 1 6 8
M  V30 8 1 8 9
M  V30 9 2 9 10
M  V30 10 1 9 11
M  V30 11 1 11 12
M  V30 12 1 12 13
M  V30 13 2 13 14
M  V30 14 1 14 15
M  V30 15 2 15 16
M  V30 16 1 16 17
M  V30 17 2 17 18
M  V30 18 1 16 19
M  V30 19 2 19 20
M  V30 20 2 19 21
M  V30 21 1 19 22
M  V30 22 1 8 23
M  V30 23 2 23 24
M  V30 24 1 23 25
M  V30 25 1 7 2
M  V30 26 1 18 13
M  V30 27 1 1 26
M  V30 28 1 1 27
M  V30 29 1 3 28
M  V30 30 1 4 29
M  V30 31 1 5 30
M  V30 32 1 7 31
M  V30 33 1 11 32
M  V30 34 1 12 33
M  V30 35 1 12 34
M  V30 36 1 14 35
M  V30 37 1 15 36
M  V30 38 1 17 37
M  V30 39 1 18 38
M  V30 40 1 22 39
M  V30 41 1 22 40
M  V30 42 1 25 41
M  V30 43 1 25 42
M  V30 44 1 25 43
M  V30 END BOND
M  V30 END CTAB
M  END
