
     RDKit          3D

  0  0  0  0  0  0  0  0  0  0999 V3000
M  V30 BEGIN CTAB
M  V30 COUNTS 63 66 0 0 0
M  V30 BEGIN ATOM
M  V30 1 O 6.70054 2.12596 -1.57927 0
M  V30 2 C 6.04142 1.48307 -0.834964 0
M  V30 3 N 4.82527 0.840635 -0.804165 0
M  V30 4 C 3.65581 0.238872 -0.809633 0
M  V30 5 C 2.45429 0.502573 -1.32875 0
M  V30 6 C 1.19005 -0.146481 -1.11816 0
M  V30 7 C 1.28882 -1.21997 -0.246403 0
M  V30 8 C 2.48648 -1.58353 0.325426 0
M  V30 9 C 3.62084 -0.925612 0.0939069 0
M  V30 10 O 4.81764 -1.28252 0.675617 0
M  V30 11 C 0.13727 -2.11506 0.0253001 0
M  V30 12 C -1.15444 -1.42592 0.0209576 0
M  V30 13 C -1.65088 -0.754108 1.13214 0
M  V30 14 C -2.85995 -0.187695 1.22701 0
M  V30 15 C -3.73551 -0.255945 0.117852 0
M  V30 16 C -3.30745 -0.889731 -1.03696 0
M  V30 17 C -2.03882 -1.46101 -1.06001 0
M  V30 18 O -4.16057 -0.912172 -2.11638 0
M  V30 19 N -4.9469 0.423149 0.318779 0
M  V30 20 C -6.08512 1.0434 0.603575 0
M  V30 21 O -6.58853 1.16185 1.8187 0
M  V30 22 C -6.95803 1.68379 -0.492486 0
M  V30 23 S -8.21681 0.644269 -0.961904 0
M  V30 24 C -9.86051 1.14315 -0.401307 0
M  V30 25 N -10.9675 0.333597 -0.545781 0
M  V30 26 N -12.0911 0.885805 -0.215686 0
M  V30 27 C -12.1508 2.11273 0.208276 0
M  V30 28 S -10.5485 2.54888 0.182254 0
M  V30 29 N -13.3935 2.84809 0.51059 0
M  V30 30 C 0.316479 -2.8073 1.35083 0
M  V30 31 C 0.147671 -3.18126 -1.10528 0
M  V30 32 C 6.7339 1.33395 0.596515 0
M  V30 33 S 8.01389 2.51323 0.696347 0
M  V30 34 C 9.67663 1.86613 0.45782 0
M  V30 35 N 10.4229 1.44295 1.61889 0
M  V30 36 N 11.5528 0.975083 1.39981 0
M  V30 37 C 12.0529 0.892141 0.15771 0
M  V30 38 S 10.7555 1.53585 -0.765736 0
M  V30 39 N 13.3093 0.373372 -0.249703 0
M  V30 40 H 4.6246 1.28769 -2.09888 0
M  V30 41 H 2.40096 1.41467 -2.07702 0
M  V30 42 H 0.334068 0.155448 -1.56589 0
M  V30 43 H 2.54097 -2.43847 1.00555 0
M  V30 44 H 4.88512 -2.10033 1.27053 0
M  V30 45 H -0.915878 -0.704914 1.98709 0
M  V30 46 H -3.25982 0.355509 2.0868 0
M  V30 47 H -1.68406 -1.91374 -1.94472 0
M  V30 48 H -3.78001 -1.40956 -2.94736 0
M  V30 49 H -5.2117 -0.524986 1.30918 0
M  V30 50 H -7.39461 2.64732 0.0800593 0
M  V30 51 H -6.32183 2.19153 -1.20497 0
M  V30 52 H -13.7749 2.91002 1.44674 0
M  V30 53 H -13.8182 3.25315 -0.334305 0
M  V30 54 H 0.699423 -1.99093 2.00501 0
M  V30 55 H 1.0055 -3.70466 1.27861 0
M  V30 56 H -0.722834 -3.18537 1.61313 0
M  V30 57 H 0.853906 -3.91555 -0.846214 0
M  V30 58 H 0.287848 -2.63921 -2.02929 0
M  V30 59 H -0.871357 -3.67138 -1.08347 0
M  V30 60 H 5.98567 1.4709 1.35973 0
M  V30 61 H 7.07663 0.268783 0.542702 0
M  V30 62 H 13.6754 -0.469689 0.204994 0
M  V30 63 H 13.8999 0.909567 -0.952256 0
M  V30 END ATOM
M  V30 BEGIN BOND
M  V30 1 2 1 2
M  V30 2 1 2 3
M  V30 3 1 3 4
M  V30 4 2 4 5
M  V30 5 1 5 6
M  V30 6 2 6 7
M  V30 7 1 7 8
M  V30 8 2 8 9
M  V30 9 1 9 10
M  V30 10 1 7 11
M  V30 11 1 11 12
M  V30 12 2 12 13
M  V30 13 1 13 14
M  V30 14 2 14 15
M  V30 15 1 15 16
M  V30 16 2 16 17
M  V30 17 1 16 18
M  V30 18 1 15 19
M  V30 19 1 19 20
M  V30 20 2 20 21
M  V30 21 1 20 22
M  V30 22 1 22 23
M  V30 23 1 23 24
M  V30 24 2 24 25
M  V30 25 1 25 26
M  V30 26 2 26 27
M  V30 27 1 27 28
M  V30 28 1 27 29
M  V30 29 1 11 30
M  V30 30 1 11 31
M  V30 31 1 2 32
M  V30 32 1 32 33
M  V30 33 1 33 34
M  V30 34 2 34 35
M  V30 35 1 35 36
M  V30 36 2 36 37
M  V30 37 1 37 38
M  V30 38 1 37 39
M  V30 39 1 9 4
M  V30 40 1 17 12
M  V30 41 1 28 24
M  V30 42 1 38 34
M  V30 43 1 3 40
M  V30 44 1 5 41
M  V30 45 1 6 42
M  V30 46 1 8 43
M  V30 47 1 10 44
M  V30 48 1 13 45
M  V30 49 1 14 46
M  V30 50 1 17 47
M  V30 51 1 18 48
M  V30 52 1 19 49
M  V30 53 1 22 50
M  V30 54 1 22 51
M  V30 55 1 29 52
M  V30 56 1 29 53
M  V30 57 1 30 54
M  V30 58 1 30 55
M  V30 59 1 30 56
M  V30 60 1 31 57
M  V30 61 1 31 58
M  V30 62 1 31 59
M  V30 63 1 32 60
M  V30 64 1 32 61
M  V30 65 1 39 62
M  V30 66 1 39 63
M  V30 END BOND
M  V30 END CTAB
M  END
