
     RDKit          3D

  0  0  0  0  0  0  0  0  0  0999 V3000
M  V30 BEGIN CTAB
M  V30 COUNTS 32 33 0 0 0
M  V30 BEGIN ATOM
M  V30 1 O -0.213425 1.51579 -3.32797 0
M  V30 2 C 0.0637793 1.03909 -2.16301 0
M  V30 3 C 1.39679 1.31433 -1.67169 0
M  V30 4 C 2.37945 2.0503 -2.37047 0
M  V30 5 C 3.49462 2.09278 -1.58569 0
M  V30 6 C 3.19878 1.39988 -0.437227 0
M  V30 7 O 1.97686 0.98062 -0.555317 0
M  V30 8 S 4.32485 1.17532 0.887523 0
M  V30 9 O 4.48177 -0.306068 1.18006 0
M  V30 10 O 5.63088 1.80286 0.590753 0
M  V30 11 N 3.62617 1.88282 2.31455 0
M  V30 12 N -0.931053 0.325714 -1.51857 0
M  V30 13 C -0.990891 -0.319647 -0.280624 0
M  V30 14 O -0.0205247 -0.339664 0.515653 0
M  V30 15 C -2.22927 -1.01356 0.135247 0
M  V30 16 C -3.36898 -1.07151 -0.637703 0
M  V30 17 C -4.48985 -1.75659 -0.147761 0
M  V30 18 C -4.47918 -2.3709 1.08324 0
M  V30 19 C -3.33447 -2.3073 1.84884 0
M  V30 20 C -2.225 -1.63126 1.368 0
M  V30 21 N -1.05391 -1.57258 2.16389 0
M  V30 22 H 2.23409 2.48933 -3.35757 0
M  V30 23 H 4.448 2.59346 -1.839 0
M  V30 24 H 2.60401 1.62861 2.35074 0
M  V30 25 H 4.06908 1.39098 3.1239 0
M  V30 26 H -1.85691 0.260876 -2.11127 0
M  V30 27 H -3.43742 -0.61061 -1.60839 0
M  V30 28 H -5.38383 -1.80411 -0.74993 0
M  V30 29 H -5.37004 -2.90738 1.45669 0
M  V30 30 H -3.28223 -2.77779 2.82598 0
M  V30 31 H -0.878941 -0.765106 2.79249 0
M  V30 32 H -0.383214 -2.3887 2.07745 0
M  V30 END ATOM
M  V30 BEGIN BOND
M  V30 1 2 1 2
M  V30 2 1 2 3
M  V30 3 2 3 4
M  V30 4 1 4 5
M  V30 5 2 5 6
M  V30 6 1 6 7
M  V30 7 1 6 8
M  V30 8 2 8 9
M  V30 9 2 8 10
M  V30 10 1 8 11
M  V30 11 1 2 12
M  V30 12 1 12 13
M  V30 13 2 13 14
M  V30 14 1 13 15
M  V30 15 2 15 16
M  V30 16 1 16 17
M  V30 17 2 17 18
M  V30 18 1 18 19
M  V30 19 2 19 20
M  V30 20 1 20 21
M  V30 21 1 7 3
M  V30 22 1 20 15
M  V30 23 1 4 22
M  V30 24 1 5 23
M  V30 25 1 11 24
M  V30 26 1 11 25
M  V30 27 1 12 26
M  V30 28 1 16 27
M  V30 29 1 17 28
M  V30 30 1 18 29
M  V30 31 1 19 30
M  V30 32 1 21 31
M  V30 33 1 21 32
M  V30 END BOND
M  V30 END CTAB
M  END
