
     RDKit          3D

  0  0  0  0  0  0  0  0  0  0999 V3000
M  V30 BEGIN CTAB
M  V30 COUNTS 35 35 0 0 0
M  V30 BEGIN ATOM
M  V30 1 C 2.2719 3.3819 -0.348079 0
M  V30 2 C 1.7652 2.075 0.23018 0
M  V30 3 C 0.99966 1.24516 -0.797719 0
M  V30 4 N 0.558971 0.0395448 -0.128524 0
M  V30 5 C -0.826615 -0.0636387 0.114037 0
M  V30 6 C -1.64688 -0.513903 -0.877559 0
M  V30 7 C -3.00978 -0.611996 -0.664562 0
M  V30 8 N -3.84978 -1.07808 -1.70398 0
M  V30 9 N -3.50138 -0.254509 0.539781 0 CHG=1
M  V30 10 C -2.67864 0.18503 1.50497 0
M  V30 11 N -1.33318 0.283357 1.2958 0
M  V30 12 N -3.20949 0.559335 2.77007 0
M  V30 13 O -4.87452 -0.357094 0.718717 0 CHG=-1
M  V30 14 C 1.41685 -1.00739 0.312295 0
M  V30 15 C 2.09437 -1.81232 -0.734386 0
M  V30 16 C 2.94266 -2.85454 0.0156759 0
M  V30 17 H 2.95812 3.81448 0.411117 0
M  V30 18 H 2.8365 3.2436 -1.28031 0
M  V30 19 H 1.42961 4.12404 -0.485404 0
M  V30 20 H 1.10674 2.32879 1.08214 0
M  V30 21 H 2.62194 1.48432 0.583937 0
M  V30 22 H 0.139174 1.85695 -1.12966 0
M  V30 23 H 1.6144 1.05188 -1.69916 0
M  V30 24 H -1.28565 -0.817338 -1.86913 0
M  V30 25 H -3.68138 -2.02379 -2.11782 0
M  V30 26 H -4.62587 -0.453328 -2.02626 0
M  V30 27 H -3.14629 1.55361 3.03276 0
M  V30 28 H -3.63629 -0.177052 3.37585 0
M  V30 29 H 2.21486 -0.540409 0.953421 0
M  V30 30 H 0.87753 -1.71547 0.985002 0
M  V30 31 H 2.82012 -1.24638 -1.34678 0
M  V30 32 H 1.37402 -2.37534 -1.35275 0
M  V30 33 H 2.22652 -3.655 0.309332 0
M  V30 34 H 3.31068 -2.37769 0.935701 0
M  V30 35 H 3.72593 -3.2917 -0.608716 0
M  V30 END ATOM
M  V30 BEGIN BOND
M  V30 1 1 1 2
M  V30 2 1 2 3
M  V30 3 1 3 4
M  V30 4 1 4 5
M  V30 5 2 5 6
M  V30 6 1 6 7
M  V30 7 1 7 8
M  V30 8 2 7 9
M  V30 9 1 9 10
M  V30 10 2 10 11
M  V30 11 1 10 12
M  V30 12 1 9 13
M  V30 13 1 4 14
M  V30 14 1 14 15
M  V30 15 1 15 16
M  V30 16 1 11 5
M  V30 17 1 1 17
M  V30 18 1 1 18
M  V30 19 1 1 19
M  V30 20 1 2 20
M  V30 21 1 2 21
M  V30 22 1 3 22
M  V30 23 1 3 23
M  V30 24 1 6 24
M  V30 25 1 8 25
M  V30 26 1 8 26
M  V30 27 1 12 27
M  V30 28 1 12 28
M  V30 29 1 14 29
M  V30 30 1 14 30
M  V30 31 1 15 31
M  V30 32 1 15 32
M  V30 33 1 16 33
M  V30 34 1 16 34
M  V30 35 1 16 35
M  V30 END BOND
M  V30 END CTAB
M  END
