
     RDKit          3D

  0  0  0  0  0  0  0  0  0  0999 V3000
M  V30 BEGIN CTAB
M  V30 COUNTS 30 31 0 0 0
M  V30 BEGIN ATOM
M  V30 1 F -4.40467 1.8356 -2.05108 0
M  V30 2 C -4.37481 0.787546 -1.20561 0
M  V30 3 C -5.57045 0.192598 -0.876047 0
M  V30 4 C -5.52455 -0.877856 -0.0106259 0
M  V30 5 C -4.34918 -1.34419 0.509647 0
M  V30 6 C -3.15304 -0.745861 0.177391 0
M  V30 7 C -3.17328 0.325436 -0.685491 0
M  V30 8 C -1.87901 -1.21482 0.712129 0
M  V30 9 O -1.84981 -2.2071 1.51357 0
M  V30 10 C -0.618285 -0.547683 0.331746 0
M  V30 11 S 0.796175 -1.32526 1.13237 0
M  V30 12 C 2.29801 -0.496625 0.652933 0
M  V30 13 N 3.01474 -0.867118 -0.431481 0
M  V30 14 C 4.14988 -0.248122 -0.802042 0
M  V30 15 N 4.8749 -0.659537 -1.93955 0
M  V30 16 C 4.62695 0.815666 -0.0600918 0
M  V30 17 C 3.901 1.20089 1.04938 0
M  V30 18 N 2.76682 0.539331 1.3715 0
M  V30 19 N 4.35496 2.28785 1.83875 0
M  V30 20 F -4.3275 -2.40041 1.36071 0
M  V30 21 H -6.53004 0.51628 -1.25502 0
M  V30 22 H -6.44191 -1.37195 0.27242 0
M  V30 23 H -2.28155 0.85167 -0.997595 0
M  V30 24 H -0.519252 -0.683492 -0.785006 0
M  V30 25 H -0.674854 0.528816 0.590967 0
M  V30 26 H 4.47518 -0.550487 -2.88416 0
M  V30 27 H 5.81321 -1.07313 -1.82518 0
M  V30 28 H 5.53373 1.34459 -0.317623 0
M  V30 29 H 3.88772 3.22299 1.8104 0
M  V30 30 H 5.17893 2.16437 2.47112 0
M  V30 END ATOM
M  V30 BEGIN BOND
M  V30 1 1 1 2
M  V30 2 2 2 3
M  V30 3 1 3 4
M  V30 4 2 4 5
M  V30 5 1 5 6
M  V30 6 2 6 7
M  V30 7 1 6 8
M  V30 8 2 8 9
M  V30 9 1 8 10
M  V30 10 1 10 11
M  V30 11 1 11 12
M  V30 12 2 12 13
M  V30 13 1 13 14
M  V30 14 1 14 15
M  V30 15 2 14 16
M  V30 16 1 16 17
M  V30 17 2 17 18
M  V30 18 1 17 19
M  V30 19 1 5 20
M  V30 20 1 7 2
M  V30 21 1 18 12
M  V30 22 1 3 21
M  V30 23 1 4 22
M  V30 24 1 7 23
M  V30 25 1 10 24
M  V30 26 1 10 25
M  V30 27 1 15 26
M  V30 28 1 15 27
M  V30 29 1 16 28
M  V30 30 1 19 29
M  V30 31 1 19 30
M  V30 END BOND
M  V30 END CTAB
M  END
