
     RDKit          3D

  0  0  0  0  0  0  0  0  0  0999 V3000
M  V30 BEGIN CTAB
M  V30 COUNTS 27 27 0 0 0
M  V30 BEGIN ATOM
M  V30 1 N 2.814 1.70616 -0.929028 0
M  V30 2 N 3.04155 0.611115 -0.166097 0
M  V30 3 C 2.36015 -0.439307 0.018915 0
M  V30 4 C 1.0549 -0.597957 -0.678525 0
M  V30 5 N -0.0655824 -0.478895 0.183247 0
M  V30 6 C -0.335314 0.801127 0.722246 0
M  V30 7 C -1.81735 0.891496 1.04744 0
M  V30 8 C -2.54668 0.733552 -0.278748 0
M  V30 9 C -2.32613 -0.687605 -0.756274 0
M  V30 10 C -1.16235 -1.3422 -0.0487872 0
M  V30 11 N 2.84102 -1.43012 0.906754 0
M  V30 12 H 3.17641 1.91983 -1.8842 0
M  V30 13 H 2.19058 2.46759 -0.529386 0
M  V30 14 H 1.05001 0.0649878 -1.56596 0
M  V30 15 H 1.03269 -1.64336 -1.10634 0
M  V30 16 H 0.276488 0.972177 1.65452 0
M  V30 17 H -0.117131 1.64279 -0.00566032 0
M  V30 18 H -2.1013 0.07529 1.74006 0
M  V30 19 H -2.07594 1.8778 1.49088 0
M  V30 20 H -3.62409 0.943982 -0.128615 0
M  V30 21 H -2.08476 1.47106 -0.975705 0
M  V30 22 H -2.0725 -0.682616 -1.84976 0
M  V30 23 H -3.23144 -1.29282 -0.528403 0
M  V30 24 H -0.831368 -2.1925 -0.67445 0
M  V30 25 H -1.50846 -1.7924 0.925318 0
M  V30 26 H 3.11984 -1.17678 1.88934 0
M  V30 27 H 2.94276 -2.4224 0.641051 0
M  V30 END ATOM
M  V30 BEGIN BOND
M  V30 1 1 1 2
M  V30 2 2 2 3 CFG=2
M  V30 3 1 3 4
M  V30 4 1 4 5
M  V30 5 1 5 6
M  V30 6 1 6 7
M  V30 7 1 7 8
M  V30 8 1 8 9
M  V30 9 1 9 10
M  V30 10 1 3 11
M  V30 11 1 10 5
M  V30 12 1 1 12
M  V30 13 1 1 13
M  V30 14 1 4 14
M  V30 15 1 4 15
M  V30 16 1 6 16
M  V30 17 1 6 17
M  V30 18 1 7 18
M  V30 19 1 7 19
M  V30 20 1 8 20
M  V30 21 1 8 21
M  V30 22 1 9 22
M  V30 23 1 9 23
M  V30 24 1 10 24
M  V30 25 1 10 25
M  V30 26 1 11 26
M  V30 27 1 11 27
M  V30 END BOND
M  V30 END CTAB
M  END
