
     RDKit          3D

  0  0  0  0  0  0  0  0  0  0999 V3000
M  V30 BEGIN CTAB
M  V30 COUNTS 39 41 0 0 0
M  V30 BEGIN ATOM
M  V30 1 N -2.06174 2.13249 0.842418 0
M  V30 2 C -2.38157 0.930245 0.111468 0
M  V30 3 C -3.8156 0.569819 0.529079 0
M  V30 4 N -4.24518 -0.477056 -0.346751 0
M  V30 5 C -3.53417 -1.68104 0.0264815 0
M  V30 6 C -2.05655 -1.5382 -0.00779037 0
M  V30 7 C -1.5199 -0.229731 0.470778 0
M  V30 8 C -0.116446 -0.0843084 0.0133787 0
M  V30 9 C 0.261364 0.910753 -0.770127 0
M  V30 10 C 1.66873 1.02971 -1.21147 0
M  V30 11 C 2.69493 0.536471 -0.252676 0
M  V30 12 C 2.04597 -0.0722202 0.940006 0
M  V30 13 C 0.967398 -1.03045 0.404073 0
M  V30 14 C 4.05598 1.1194 -0.189493 0
M  V30 15 C 3.86238 -0.172667 -0.860194 0
M  V30 16 N 4.22901 -1.42924 -0.231344 0
M  V30 17 H -2.35257 2.06078 1.8402 0
M  V30 18 H -2.348 3.0002 0.374525 0
M  V30 19 H -2.39602 1.12844 -0.961263 0
M  V30 20 H -3.74091 0.248048 1.59002 0
M  V30 21 H -4.4463 1.47888 0.464268 0
M  V30 22 H -3.94928 -0.242389 -1.32333 0
M  V30 23 H -3.89258 -2.00903 1.02477 0
M  V30 24 H -3.83307 -2.46434 -0.712161 0
M  V30 25 H -1.69947 -1.73084 -1.05968 0
M  V30 26 H -1.63146 -2.35396 0.649222 0
M  V30 27 H -1.4616 -0.300645 1.59835 0
M  V30 28 H -0.443638 1.68454 -1.1251 0
M  V30 29 H 1.91323 2.10259 -1.4488 0
M  V30 30 H 1.81402 0.522855 -2.21505 0
M  V30 31 H 1.56569 0.748417 1.52352 0
M  V30 32 H 2.73139 -0.587223 1.62757 0
M  V30 33 H 0.656978 -1.74761 1.17504 0
M  V30 34 H 1.36461 -1.5951 -0.452519 0
M  V30 35 H 4.2234 1.99257 -0.862939 0
M  V30 36 H 4.54875 1.12665 0.816307 0
M  V30 37 H 3.92387 -0.221862 -1.97023 0
M  V30 38 H 4.59152 -1.33149 0.720815 0
M  V30 39 H 4.80682 -2.02343 -0.86154 0
M  V30 END ATOM
M  V30 BEGIN BOND
M  V30 1 1 1 2
M  V30 2 1 2 3
M  V30 3 1 3 4
M  V30 4 1 4 5
M  V30 5 1 5 6
M  V30 6 1 6 7
M  V30 7 1 7 8
M  V30 8 2 8 9
M  V30 9 1 9 10
M  V30 10 1 10 11
M  V30 11 1 11 12
M  V30 12 1 12 13
M  V30 13 1 11 14
M  V30 14 1 14 15
M  V30 15 1 15 16
M  V30 16 1 7 2
M  V30 17 1 13 8
M  V30 18 1 15 11
M  V30 19 1 1 17
M  V30 20 1 1 18
M  V30 21 1 2 19
M  V30 22 1 3 20
M  V30 23 1 3 21
M  V30 24 1 4 22
M  V30 25 1 5 23
M  V30 26 1 5 24
M  V30 27 1 6 25
M  V30 28 1 6 26
M  V30 29 1 7 27
M  V30 30 1 9 28
M  V30 31 1 10 29
M  V30 32 1 10 30
M  V30 33 1 12 31
M  V30 34 1 12 32
M  V30 35 1 13 33
M  V30 36 1 13 34
M  V30 37 1 14 35
M  V30 38 1 14 36
M  V30 39 1 15 37
M  V30 40 1 16 38
M  V30 41 1 16 39
M  V30 END BOND
M  V30 END CTAB
M  END
