
     RDKit          3D

  0  0  0  0  0  0  0  0  0  0999 V3000
M  V30 BEGIN CTAB
M  V30 COUNTS 33 34 0 0 0
M  V30 BEGIN ATOM
M  V30 1 N -6.31935 2.47337 0.677288 0
M  V30 2 C -5.45129 1.39477 0.374165 0
M  V30 3 N -4.18965 1.57987 0.34236 0
M  V30 4 C -3.32017 0.472686 0.0324889 0
M  V30 5 S -3.73348 -1.1448 -0.320292 0
M  V30 6 C -2.15674 -1.76178 -0.557837 0
M  V30 7 C -1.38835 -0.643231 -0.342529 0
M  V30 8 N -2.01157 0.45656 -0.0489666 0
M  V30 9 C 0.0948509 -0.71509 -0.447343 0
M  V30 10 C 0.875173 0.399618 -0.233597 0
M  V30 11 C 2.26829 0.345363 -0.328963 0
M  V30 12 C 2.90275 -0.818825 -0.637724 0
M  V30 13 C 2.12206 -1.94632 -0.854714 0
M  V30 14 C 0.758513 -1.87259 -0.756809 0
M  V30 15 N 4.31615 -0.904512 -0.760234 0
M  V30 16 S 5.36925 -0.323237 0.437019 0
M  V30 17 O 5.10337 -1.01424 1.77994 0
M  V30 18 O 6.78261 -0.688752 0.027506 0
M  V30 19 C 5.22043 1.41058 0.694569 0
M  V30 20 N -6.01342 0.12799 0.112185 0
M  V30 21 H -6.35251 3.25695 -0.0125959 0
M  V30 22 H -6.89126 2.47199 1.54979 0
M  V30 23 H -1.83851 -2.78555 -0.815558 0
M  V30 24 H 0.374734 1.34328 0.0162804 0
M  V30 25 H 2.80431 1.26262 -0.158644 0
M  V30 26 H 2.58356 -2.87985 -1.09994 0
M  V30 27 H 0.135688 -2.77183 -0.929855 0
M  V30 28 H 4.67521 -1.35389 -1.64592 0
M  V30 29 H 5.06866 1.97445 -0.235505 0
M  V30 30 H 6.20442 1.76053 1.09368 0
M  V30 31 H 4.47552 1.64224 1.48643 0
M  V30 32 H -6.26349 -0.207913 -0.849947 0
M  V30 33 H -6.20577 -0.540434 0.895211 0
M  V30 END ATOM
M  V30 BEGIN BOND
M  V30 1 1 1 2
M  V30 2 2 2 3 CFG=2
M  V30 3 1 3 4
M  V30 4 1 4 5
M  V30 5 1 5 6
M  V30 6 2 6 7
M  V30 7 1 7 8
M  V30 8 1 7 9
M  V30 9 2 9 10
M  V30 10 1 10 11
M  V30 11 2 11 12
M  V30 12 1 12 13
M  V30 13 2 13 14
M  V30 14 1 12 15
M  V30 15 1 15 16
M  V30 16 2 16 17
M  V30 17 2 16 18
M  V30 18 1 16 19
M  V30 19 1 2 20
M  V30 20 2 8 4
M  V30 21 1 14 9
M  V30 22 1 1 21
M  V30 23 1 1 22
M  V30 24 1 6 23
M  V30 25 1 10 24
M  V30 26 1 11 25
M  V30 27 1 13 26
M  V30 28 1 14 27
M  V30 29 1 15 28
M  V30 30 1 19 29
M  V30 31 1 19 30
M  V30 32 1 19 31
M  V30 33 1 20 32
M  V30 34 1 20 33
M  V30 END BOND
M  V30 END CTAB
M  END
