
     RDKit          3D

  0  0  0  0  0  0  0  0  0  0999 V3000
M  V30 BEGIN CTAB
M  V30 COUNTS 21 21 0 0 0
M  V30 BEGIN ATOM
M  V30 1 N -2.57211 0.279448 -0.363052 0
M  V30 2 C -2.07609 0.901364 0.838273 0
M  V30 3 N -2.15483 2.18388 0.89138 0
M  V30 4 N -1.54025 0.119909 1.88258 0
M  V30 5 S -0.820573 -1.39292 1.49742 0
M  V30 6 O -0.295176 -2.04364 2.75532 0
M  V30 7 O -1.80549 -2.25367 0.809047 0
M  V30 8 C 0.569272 -1.16455 0.424373 0
M  V30 9 S 1.6139 -2.32179 -0.248876 0
M  V30 10 C 2.64448 -1.28834 -1.12876 0
M  V30 11 C 2.13391 -0.0424724 -0.867147 0
M  V30 12 C 1.05758 0.0180795 -0.061225 0
M  V30 13 N 2.76579 1.13763 -1.46082 0
M  V30 14 H -3.50751 0.514251 -0.76117 0
M  V30 15 H -1.96335 -0.418533 -0.827213 0
M  V30 16 H -2.55013 2.73485 0.118718 0
M  V30 17 H -1.58204 0.45164 2.84609 0
M  V30 18 H 3.51953 -1.53379 -1.76451 0
M  V30 19 H 0.560615 0.98119 0.218586 0
M  V30 20 H 3.60886 1.56521 -1.02555 0
M  V30 21 H 2.3936 1.57225 -2.32008 0
M  V30 END ATOM
M  V30 BEGIN BOND
M  V30 1 1 1 2
M  V30 2 2 2 3 CFG=2
M  V30 3 1 2 4
M  V30 4 1 4 5
M  V30 5 2 5 6
M  V30 6 2 5 7
M  V30 7 1 5 8
M  V30 8 1 8 9
M  V30 9 1 9 10
M  V30 10 2 10 11
M  V30 11 1 11 12
M  V30 12 1 11 13
M  V30 13 2 12 8
M  V30 14 1 1 14
M  V30 15 1 1 15
M  V30 16 1 3 16
M  V30 17 1 4 17
M  V30 18 1 10 18
M  V30 19 1 12 19
M  V30 20 1 13 20
M  V30 21 1 13 21
M  V30 END BOND
M  V30 END CTAB
M  END
