
     RDKit          3D

  0  0  0  0  0  0  0  0  0  0999 V3000
M  V30 BEGIN CTAB
M  V30 COUNTS 32 33 0 0 0
M  V30 BEGIN ATOM
M  V30 1 C -2.81946 -0.724838 -0.156753 0
M  V30 2 C -1.44957 -0.691394 0.417112 0
M  V30 3 C -0.603931 0.431884 -0.147957 0
M  V30 4 C -1.14045 1.80869 0.0777315 0
M  V30 5 C -0.960478 2.09589 -1.4021 0
M  V30 6 C -0.846617 0.614495 -1.63108 0
M  V30 7 C 0.831236 0.352697 0.185153 0
M  V30 8 N 1.56025 1.26803 0.866007 0
M  V30 9 C 2.83277 0.851697 0.976441 0
M  V30 10 N 2.91118 -0.320885 0.369355 0
M  V30 11 C 1.70796 -0.660474 -0.12754 0
M  V30 12 N 1.41098 -1.85031 -0.84258 0
M  V30 13 N 4.06666 -1.09026 0.26015 0
M  V30 14 C -1.4599 -0.552499 1.93304 0
M  V30 15 H -3.26021 0.271968 -0.344429 0
M  V30 16 H -3.48795 -1.27114 0.552876 0
M  V30 17 H -2.85934 -1.2895 -1.11502 0
M  V30 18 H -0.952371 -1.65142 0.198586 0
M  V30 19 H -2.1845 1.8761 0.437798 0
M  V30 20 H -0.485783 2.45537 0.711818 0
M  V30 21 H -0.00534485 2.60525 -1.65864 0
M  V30 22 H -1.86524 2.53007 -1.87777 0
M  V30 23 H 0.0292187 0.28075 -2.22735 0
M  V30 24 H -1.76115 0.166126 -2.03181 0
M  V30 25 H 3.58985 1.43645 1.48771 0
M  V30 26 H 1.17535 -2.70007 -0.290668 0
M  V30 27 H 1.4224 -1.89281 -1.86346 0
M  V30 28 H 4.22498 -1.85081 0.935297 0
M  V30 29 H 4.72769 -0.860549 -0.507973 0
M  V30 30 H -0.433579 -0.269729 2.22363 0
M  V30 31 H -2.21615 0.174128 2.24357 0
M  V30 32 H -1.69851 -1.5429 2.34887 0
M  V30 END ATOM
M  V30 BEGIN BOND
M  V30 1 1 1 2
M  V30 2 1 2 3
M  V30 3 1 3 4
M  V30 4 1 4 5
M  V30 5 1 5 6
M  V30 6 1 3 7
M  V30 7 1 7 8
M  V30 8 2 8 9
M  V30 9 1 9 10
M  V30 10 1 10 11
M  V30 11 1 11 12
M  V30 12 1 10 13
M  V30 13 1 2 14
M  V30 14 1 6 3
M  V30 15 2 11 7
M  V30 16 1 1 15
M  V30 17 1 1 16
M  V30 18 1 1 17
M  V30 19 1 2 18
M  V30 20 1 4 19
M  V30 21 1 4 20
M  V30 22 1 5 21
M  V30 23 1 5 22
M  V30 24 1 6 23
M  V30 25 1 6 24
M  V30 26 1 9 25
M  V30 27 1 12 26
M  V30 28 1 12 27
M  V30 29 1 13 28
M  V30 30 1 13 29
M  V30 31 1 14 30
M  V30 32 1 14 31
M  V30 33 1 14 32
M  V30 END BOND
M  V30 END CTAB
M  END
