
     RDKit          3D

  0  0  0  0  0  0  0  0  0  0999 V3000
M  V30 BEGIN CTAB
M  V30 COUNTS 29 29 0 0 0
M  V30 BEGIN ATOM
M  V30 1 C -3.88669 -1.11986 0.502294 0
M  V30 2 N -3.32749 0.179919 0.820062 0
M  V30 3 C -3.95765 1.24465 0.131269 0
M  V30 4 C -1.92423 0.214995 0.914948 0
M  V30 5 C -1.18105 0.024947 -0.410647 0
M  V30 6 O 0.139824 0.0461257 -0.327822 0
M  V30 7 C 1.38922 0.108458 -0.236892 0
M  V30 8 C 2.16298 -1.05853 -0.446022 0
M  V30 9 C 3.52937 -1.08347 -0.384691 0
M  V30 10 N 4.22512 -2.31209 -0.596577 0
M  V30 11 N 4.18491 0.0557105 -0.116266 0
M  V30 12 C 3.48007 1.20579 0.0932741 0
M  V30 13 N 4.27496 2.36246 0.343706 0
M  V30 14 N 2.14807 1.20987 0.0318864 0
M  V30 15 H -4.16064 -1.71405 1.41078 0
M  V30 16 H -3.17092 -1.73278 -0.0779688 0
M  V30 17 H -4.82606 -1.02298 -0.0609453 0
M  V30 18 H -4.70384 1.69837 0.842991 0
M  V30 19 H -3.24795 2.0194 -0.240261 0
M  V30 20 H -4.58664 0.896368 -0.739356 0
M  V30 21 H -1.56129 -0.569268 1.6392 0
M  V30 22 H -1.62709 1.2105 1.32603 0
M  V30 23 H -1.57821 -0.881471 -0.920548 0
M  V30 24 H -1.54486 0.859789 -1.12204 0
M  V30 25 H 1.66359 -1.96824 -0.664474 0
M  V30 26 H 4.35398 -2.64789 -1.56535 0
M  V30 27 H 4.59176 -2.82871 0.2091 0
M  V30 28 H 4.09038 3.2671 -0.155411 0
M  V30 29 H 5.05038 2.33488 1.01301 0
M  V30 END ATOM
M  V30 BEGIN BOND
M  V30 1 1 1 2
M  V30 2 1 2 3
M  V30 3 1 2 4
M  V30 4 1 4 5
M  V30 5 1 5 6
M  V30 6 1 6 7
M  V30 7 2 7 8
M  V30 8 1 8 9
M  V30 9 1 9 10
M  V30 10 2 9 11
M  V30 11 1 11 12
M  V30 12 1 12 13
M  V30 13 2 12 14
M  V30 14 1 14 7
M  V30 15 1 1 15
M  V30 16 1 1 16
M  V30 17 1 1 17
M  V30 18 1 3 18
M  V30 19 1 3 19
M  V30 20 1 3 20
M  V30 21 1 4 21
M  V30 22 1 4 22
M  V30 23 1 5 23
M  V30 24 1 5 24
M  V30 25 1 8 25
M  V30 26 1 10 26
M  V30 27 1 10 27
M  V30 28 1 13 28
M  V30 29 1 13 29
M  V30 END BOND
M  V30 END CTAB
M  END
