
     RDKit          3D

  0  0  0  0  0  0  0  0  0  0999 V3000
M  V30 BEGIN CTAB
M  V30 COUNTS 38 39 0 0 0
M  V30 BEGIN ATOM
M  V30 1 F 6.86593 1.73578 -0.688521 0
M  V30 2 C 7.30365 0.467252 -0.387059 0
M  V30 3 C 6.09436 -0.416552 -0.311541 0
M  V30 4 N 5.87379 -1.5289 -1.03812 0
M  V30 5 N 4.73328 -2.05736 -0.700695 0
M  V30 6 C 4.16388 -1.28527 0.293376 0
M  V30 7 N 5.04039 -0.296294 0.488633 0
M  V30 8 N 4.83074 0.775374 1.39784 0
M  V30 9 S 2.67168 -1.6589 1.12195 0
M  V30 10 C 1.1374 -1.06697 0.576033 0
M  V30 11 C 0.826208 0.394043 0.782959 0
M  V30 12 C -0.62431 0.630892 0.322389 0
M  V30 13 C -1.51507 -0.277868 1.13312 0
M  V30 14 S -2.41641 -1.3014 -0.121302 0
M  V30 15 C -3.73344 -0.195963 -0.710615 0
M  V30 16 N -3.69901 0.747372 -1.61768 0
M  V30 17 N -4.88886 1.31473 -1.72074 0
M  V30 18 C -5.71587 0.709607 -0.851364 0
M  V30 19 N -4.98708 -0.23941 -0.223417 0
M  V30 20 N -5.39878 -1.14146 0.751981 0
M  V30 21 C -7.15504 0.979966 -0.490123 0
M  V30 22 F -7.14191 1.07398 0.901179 0
M  V30 23 F -7.9768 -0.0181801 -0.905953 0
M  V30 24 F -7.48482 2.23003 -0.97676 0
M  V30 25 F 7.89555 0.528498 0.884234 0
M  V30 26 F 8.2067 -0.0361023 -1.26714 0
M  V30 27 H 4.21889 1.59484 1.04957 0
M  V30 28 H 5.21864 0.777249 2.33439 0
M  V30 29 H 0.987701 -1.33553 -0.530378 0
M  V30 30 H 0.311881 -1.66119 1.0859 0
M  V30 31 H 1.48508 1.04689 0.179079 0
M  V30 32 H 0.862687 0.621504 1.8485 0
M  V30 33 H -0.698088 0.55314 -0.753168 0
M  V30 34 H -0.797298 1.71113 0.635836 0
M  V30 35 H -2.30813 0.418494 1.61356 0
M  V30 36 H -1.09974 -0.83645 1.92965 0
M  V30 37 H -6.0015 -1.95286 0.537204 0
M  V30 38 H -5.08629 -1.00413 1.72286 0
M  V30 END ATOM
M  V30 BEGIN BOND
M  V30 1 1 1 2
M  V30 2 1 2 3
M  V30 3 2 3 4
M  V30 4 1 4 5
M  V30 5 2 5 6
M  V30 6 1 6 7
M  V30 7 1 7 8
M  V30 8 1 6 9
M  V30 9 1 9 10
M  V30 10 1 10 11
M  V30 11 1 11 12
M  V30 12 1 12 13
M  V30 13 1 13 14
M  V30 14 1 14 15
M  V30 15 2 15 16
M  V30 16 1 16 17
M  V30 17 2 17 18
M  V30 18 1 18 19
M  V30 19 1 19 20
M  V30 20 1 18 21
M  V30 21 1 21 22
M  V30 22 1 21 23
M  V30 23 1 21 24
M  V30 24 1 2 25
M  V30 25 1 2 26
M  V30 26 1 7 3
M  V30 27 1 19 15
M  V30 28 1 8 27
M  V30 29 1 8 28
M  V30 30 1 10 29
M  V30 31 1 10 30
M  V30 32 1 11 31
M  V30 33 1 11 32
M  V30 34 1 12 33
M  V30 35 1 12 34
M  V30 36 1 13 35
M  V30 37 1 13 36
M  V30 38 1 20 37
M  V30 39 1 20 38
M  V30 END BOND
M  V30 END CTAB
M  END
