
     RDKit          3D

  0  0  0  0  0  0  0  0  0  0999 V3000
M  V30 BEGIN CTAB
M  V30 COUNTS 22 23 0 0 0
M  V30 BEGIN ATOM
M  V30 1 N 2.73852 -1.59242 -0.350444 0
M  V30 2 C 1.99775 -0.868298 0.615886 0
M  V30 3 C 0.59155 -0.701454 0.162435 0
M  V30 4 N -0.420241 -1.5354 0.0573031 0
M  V30 5 N -1.54669 -1.00819 -0.149216 0
M  V30 6 C -1.32759 0.365063 -0.176414 0
M  V30 7 C 0.0393061 0.562236 0.0064233 0
M  V30 8 C 0.320241 1.92206 -0.0243686 0
M  V30 9 N 1.55472 2.61488 0.1501 0
M  V30 10 N -0.860057 2.49502 -0.236307 0
M  V30 11 N -1.81261 1.59766 -0.313672 0
M  V30 12 C -2.92961 -1.54709 -0.282925 0
M  V30 13 H 2.86535 -2.54006 -0.366594 0
M  V30 14 H 3.12825 -0.942862 -1.14678 0
M  V30 15 H 2.45879 0.00644164 1.03644 0
M  V30 16 H 1.85965 -1.57499 1.55214 0
M  V30 17 H 2.44438 2.4231 -0.422354 0
M  V30 18 H 1.67534 3.32219 0.962957 0
M  V30 19 H -2.86475 1.85745 -0.553271 0
M  V30 20 H -3.47332 -1.17443 -1.1076 0
M  V30 21 H -3.48517 -1.08101 0.687257 0
M  V30 22 H -2.95379 -2.5999 -0.101003 0
M  V30 END ATOM
M  V30 BEGIN BOND
M  V30 1 1 1 2
M  V30 2 1 2 3
M  V30 3 2 3 4
M  V30 4 1 4 5
M  V30 5 1 5 6
M  V30 6 2 6 7
M  V30 7 1 7 8
M  V30 8 1 8 9
M  V30 9 2 8 10
M  V30 10 1 10 11
M  V30 11 1 5 12
M  V30 12 1 7 3
M  V30 13 1 11 6
M  V30 14 1 1 13
M  V30 15 1 1 14
M  V30 16 1 2 15
M  V30 17 1 2 16
M  V30 18 1 9 17
M  V30 19 1 9 18
M  V30 20 1 11 19
M  V30 21 1 12 20
M  V30 22 1 12 21
M  V30 23 1 12 22
M  V30 END BOND
M  V30 END CTAB
M  END
