
     RDKit          3D

  0  0  0  0  0  0  0  0  0  0999 V3000
M  V30 BEGIN CTAB
M  V30 COUNTS 41 41 0 0 0
M  V30 BEGIN ATOM
M  V30 1 C -5.74409 0.0371527 -0.33799 0
M  V30 2 C -4.91644 0.369078 0.867877 0
M  V30 3 C -3.47927 0.690215 0.522101 0
M  V30 4 C -2.80399 -0.482717 -0.164559 0
M  V30 5 C -1.39256 -0.158785 -0.495515 0
M  V30 6 O -1.17091 0.83277 -1.22827 0
M  V30 7 N -0.353752 -0.968798 0.0197464 0
M  V30 8 C 1.02293 -0.766956 -0.213309 0
M  V30 9 C 1.88587 -1.8323 0.0856824 0
M  V30 10 C 3.24773 -1.73048 -0.0904877 0
M  V30 11 C 3.81687 -0.578004 -0.567523 0
M  V30 12 C 3.0043 0.488406 -0.87182 0
M  V30 13 C 1.62672 0.355699 -0.68255 0
M  V30 14 C 5.28769 -0.45658 -0.762269 0
M  V30 15 S 5.97663 0.164628 0.759237 0
M  V30 16 O 7.45493 0.321193 0.640955 0
M  V30 17 O 5.57447 -0.740576 1.8876 0
M  V30 18 N 5.24547 1.70494 1.06138 0
M  V30 19 N -2.84138 -1.66793 0.643114 0
M  V30 20 C -3.38986 1.96163 -0.277622 0
M  V30 21 H -6.73616 -0.313744 0.0403494 0
M  V30 22 H -5.9707 0.930379 -0.962385 0
M  V30 23 H -5.34277 -0.771722 -0.952646 0
M  V30 24 H -4.92357 -0.501077 1.53903 0
M  V30 25 H -5.34689 1.25508 1.35804 0
M  V30 26 H -2.94525 0.854312 1.47989 0
M  V30 27 H -3.31361 -0.70793 -1.14515 0
M  V30 28 H -0.602249 -1.80318 0.643852 0
M  V30 29 H 1.47042 -2.77022 0.467509 0
M  V30 30 H 3.90372 -2.56626 0.146239 0
M  V30 31 H 3.44626 1.39872 -1.24784 0
M  V30 32 H 1.05436 1.21591 -0.924253 0
M  V30 33 H 5.75079 -1.40959 -1.06372 0
M  V30 34 H 5.44671 0.280618 -1.57629 0
M  V30 35 H 5.59824 2.09243 1.9679 0
M  V30 36 H 5.3575 2.36212 0.270833 0
M  V30 37 H -2.36415 -1.55225 1.55117 0
M  V30 38 H -2.41969 -2.46158 0.134777 0
M  V30 39 H -3.41362 1.81083 -1.37086 0
M  V30 40 H -2.46768 2.50414 0.0111018 0
M  V30 41 H -4.23302 2.61042 0.0669324 0
M  V30 END ATOM
M  V30 BEGIN BOND
M  V30 1 1 1 2
M  V30 2 1 2 3
M  V30 3 1 3 4
M  V30 4 1 4 5
M  V30 5 2 5 6
M  V30 6 1 5 7
M  V30 7 1 7 8
M  V30 8 2 8 9
M  V30 9 1 9 10
M  V30 10 2 10 11
M  V30 11 1 11 12
M  V30 12 2 12 13
M  V30 13 1 11 14
M  V30 14 1 14 15
M  V30 15 2 15 16
M  V30 16 2 15 17
M  V30 17 1 15 18
M  V30 18 1 4 19
M  V30 19 1 3 20
M  V30 20 1 13 8
M  V30 21 1 1 21
M  V30 22 1 1 22
M  V30 23 1 1 23
M  V30 24 1 2 24
M  V30 25 1 2 25
M  V30 26 1 3 26
M  V30 27 1 4 27
M  V30 28 1 7 28
M  V30 29 1 9 29
M  V30 30 1 10 30
M  V30 31 1 12 31
M  V30 32 1 13 32
M  V30 33 1 14 33
M  V30 34 1 14 34
M  V30 35 1 18 35
M  V30 36 1 18 36
M  V30 37 1 19 37
M  V30 38 1 19 38
M  V30 39 1 20 39
M  V30 40 1 20 40
M  V30 41 1 20 41
M  V30 END BOND
M  V30 END CTAB
M  END
