
     RDKit          3D

  0  0  0  0  0  0  0  0  0  0999 V3000
M  V30 BEGIN CTAB
M  V30 COUNTS 38 41 0 0 0
M  V30 BEGIN ATOM
M  V30 1 N 5.32917 -2.81565 -1.66731 0
M  V30 2 C 4.37382 -1.81235 -1.34718 0
M  V30 3 N 3.10969 -2.21085 -1.09589 0
M  V30 4 C 2.14063 -1.32359 -0.783604 0
M  V30 5 C 2.4726 0.00554987 -0.726876 0
M  V30 6 N 1.5174 0.887554 -0.417651 0
M  V30 7 C 0.235554 0.497453 -0.160642 0
M  V30 8 C -0.733888 1.51584 0.163119 0
M  V30 9 C -1.4011 1.54278 1.35947 0
M  V30 10 C -2.33399 2.53646 1.65387 0
M  V30 11 C -2.58298 3.52247 0.692967 0
M  V30 12 C -1.92715 3.50653 -0.498162 0
M  V30 13 C -1.006 2.49978 -0.751944 0
M  V30 14 C -0.103665 -0.84019 -0.216689 0
M  V30 15 N 0.87533 -1.703 -0.529567 0
M  V30 16 C -1.45209 -1.2967 0.0524735 0
M  V30 17 C -2.50158 -0.881811 -0.733554 0
M  V30 18 C -3.76549 -1.34531 -0.439699 0
M  V30 19 C -3.99374 -2.2076 0.616228 0
M  V30 20 C -2.95987 -2.63922 1.42014 0
M  V30 21 C -1.70249 -2.16545 1.11152 0
M  V30 22 C 3.77594 0.392926 -0.988423 0
M  V30 23 N 4.11522 1.77287 -0.929753 0
M  V30 24 N 4.71409 -0.518441 -1.29593 0
M  V30 25 H 5.51951 -3.06041 -2.65685 0
M  V30 26 H 5.86493 -3.33422 -0.929842 0
M  V30 27 H -1.22943 0.795565 2.118 0
M  V30 28 H -2.87565 2.59225 2.57539 0
M  V30 29 H -3.30855 4.3214 0.884947 0
M  V30 30 H -2.10965 4.25806 -1.24283 0
M  V30 31 H -0.491989 2.51417 -1.72411 0
M  V30 32 H -2.3872 -0.209657 -1.56999 0
M  V30 33 H -4.6182 -1.02325 -1.05876 0
M  V30 34 H -5.00414 -2.55976 0.828423 0
M  V30 35 H -3.12675 -3.3212 2.25891 0
M  V30 36 H -0.88308 -2.51053 1.75195 0
M  V30 37 H 3.36641 2.50526 -0.935942 0
M  V30 38 H 5.08838 2.11231 -0.879664 0
M  V30 END ATOM
M  V30 BEGIN BOND
M  V30 1 1 1 2
M  V30 2 2 2 3
M  V30 3 1 3 4
M  V30 4 2 4 5
M  V30 5 1 5 6
M  V30 6 2 6 7
M  V30 7 1 7 8
M  V30 8 2 8 9
M  V30 9 1 9 10
M  V30 10 2 10 11
M  V30 11 1 11 12
M  V30 12 2 12 13
M  V30 13 1 7 14
M  V30 14 2 14 15
M  V30 15 1 14 16
M  V30 16 2 16 17
M  V30 17 1 17 18
M  V30 18 2 18 19
M  V30 19 1 19 20
M  V30 20 2 20 21
M  V30 21 1 5 22
M  V30 22 1 22 23
M  V30 23 2 22 24
M  V30 24 1 24 2
M  V30 25 1 15 4
M  V30 26 1 21 16
M  V30 27 1 13 8
M  V30 28 1 1 25
M  V30 29 1 1 26
M  V30 30 1 9 27
M  V30 31 1 10 28
M  V30 32 1 11 29
M  V30 33 1 12 30
M  V30 34 1 13 31
M  V30 35 1 17 32
M  V30 36 1 18 33
M  V30 37 1 19 34
M  V30 38 1 20 35
M  V30 39 1 21 36
M  V30 40 1 23 37
M  V30 41 1 23 38
M  V30 END BOND
M  V30 END CTAB
M  END
