
     RDKit          3D

  0  0  0  0  0  0  0  0  0  0999 V3000
M  V30 BEGIN CTAB
M  V30 COUNTS 29 28 0 0 0
M  V30 BEGIN ATOM
M  V30 1 C 3.66132 0.0777253 -0.568412 0 CFG=1
M  V30 2 N 4.83582 -0.717541 -0.933639 0
M  V30 3 C 2.4792 -0.765664 -0.971093 0
M  V30 4 C 1.17982 -0.112456 -0.682528 0
M  V30 5 S -0.123509 -1.27906 -1.26685 0
M  V30 6 S -1.9913 -0.342797 -0.853502 0
M  V30 7 C -2.55104 -0.823867 0.821023 0
M  V30 8 C -3.8766 -0.124078 1.04235 0 CFG=2
M  V30 9 N -4.78164 -0.588892 0.00990977 0
M  V30 10 C -3.63033 1.33193 0.805352 0
M  V30 11 O -4.21797 2.0218 -0.251138 0
M  V30 12 O -2.8718 2.00159 1.56138 0
M  V30 13 C 3.67375 0.298358 0.889757 0
M  V30 14 O 2.8025 1.13086 1.5295 0
M  V30 15 O 4.5364 -0.312021 1.58805 0
M  V30 16 H 3.73506 1.02294 -1.14653 0
M  V30 17 H 5.52629 -0.19132 -1.47583 0
M  V30 18 H 5.17937 -1.22092 -0.109384 0
M  V30 19 H 2.53134 -1.69871 -0.370252 0
M  V30 20 H 2.57027 -0.999245 -2.05878 0
M  V30 21 H 1.05998 0.829863 -1.24773 0
M  V30 22 H 0.99237 0.0797253 0.389697 0
M  V30 23 H -2.67953 -1.93985 0.878992 0
M  V30 24 H -1.79859 -0.544164 1.58939 0
M  V30 25 H -4.27031 -0.302618 2.06386 0
M  V30 26 H -4.49913 -1.46924 -0.431224 0
M  V30 27 H -5.09676 0.153323 -0.628213 0
M  V30 28 H -5.15876 2.35414 -0.187876 0
M  V30 29 H 2.78379 2.13018 1.3451 0
M  V30 END ATOM
M  V30 BEGIN BOND
M  V30 1 1 1 2
M  V30 2 1 1 3
M  V30 3 1 3 4
M  V30 4 1 4 5
M  V30 5 1 5 6
M  V30 6 1 6 7
M  V30 7 1 7 8
M  V30 8 1 8 9
M  V30 9 1 8 10
M  V30 10 1 10 11
M  V30 11 2 10 12
M  V30 12 1 1 13
M  V30 13 1 13 14
M  V30 14 2 13 15
M  V30 15 1 1 16 CFG=3
M  V30 16 1 2 17
M  V30 17 1 2 18
M  V30 18 1 3 19
M  V30 19 1 3 20
M  V30 20 1 4 21
M  V30 21 1 4 22
M  V30 22 1 7 23
M  V30 23 1 7 24
M  V30 24 1 8 25 CFG=1
M  V30 25 1 9 26
M  V30 26 1 9 27
M  V30 27 1 11 28
M  V30 28 1 14 29
M  V30 END BOND
M  V30 END CTAB
M  END
