
     RDKit          3D

  0  0  0  0  0  0  0  0  0  0999 V3000
M  V30 BEGIN CTAB
M  V30 COUNTS 29 29 0 0 0
M  V30 BEGIN ATOM
M  V30 1 C -2.94234 -1.48199 0.345912 0
M  V30 2 C -3.35611 -0.0341404 0.644725 0
M  V30 3 C -3.47206 0.669899 -0.697995 0
M  V30 4 S -2.0542 0.655285 1.67479 0
M  V30 5 C -0.514508 0.800254 0.77618 0
M  V30 6 C -0.150558 1.94257 0.0780705 0
M  V30 7 Cl -1.24508 3.3126 0.0740938 0
M  V30 8 C 1.05467 1.97485 -0.591616 0
M  V30 9 C 1.9374 0.892782 -0.598185 0
M  V30 10 N 3.15391 1.00454 -1.31099 0
M  V30 11 C 1.57346 -0.240339 0.095873 0
M  V30 12 C 0.350651 -0.268392 0.773515 0
M  V30 13 S 2.6478 -1.61013 0.103893 0
M  V30 14 N 4.17005 -1.23882 0.772656 0
M  V30 15 O 2.83731 -2.05181 -1.33811 0
M  V30 16 O 2.02355 -2.79093 0.806278 0
M  V30 17 H -1.91268 -1.38799 -0.102881 0
M  V30 18 H -2.90354 -2.07436 1.27274 0
M  V30 19 H -3.65342 -1.90645 -0.40376 0
M  V30 20 H -4.33048 -0.0900072 1.15326 0
M  V30 21 H -3.92018 1.66812 -0.557551 0
M  V30 22 H -2.51535 0.665825 -1.24555 0
M  V30 23 H -4.19661 0.0814208 -1.32724 0
M  V30 24 H 1.33545 2.85255 -1.12884 0
M  V30 25 H 3.21026 0.775399 -2.31396 0
M  V30 26 H 4.00602 1.3229 -0.818075 0
M  V30 27 H 0.0962701 -1.17482 1.30898 0
M  V30 28 H 4.50231 -1.99005 1.4189 0
M  V30 29 H 4.26802 -0.278759 1.13489 0
M  V30 END ATOM
M  V30 BEGIN BOND
M  V30 1 1 1 2
M  V30 2 1 2 3
M  V30 3 1 2 4
M  V30 4 1 4 5
M  V30 5 2 5 6
M  V30 6 1 6 7
M  V30 7 1 6 8
M  V30 8 2 8 9
M  V30 9 1 9 10
M  V30 10 1 9 11
M  V30 11 2 11 12
M  V30 12 1 11 13
M  V30 13 1 13 14
M  V30 14 2 13 15
M  V30 15 2 13 16
M  V30 16 1 12 5
M  V30 17 1 1 17
M  V30 18 1 1 18
M  V30 19 1 1 19
M  V30 20 1 2 20
M  V30 21 1 3 21
M  V30 22 1 3 22
M  V30 23 1 3 23
M  V30 24 1 8 24
M  V30 25 1 10 25
M  V30 26 1 10 26
M  V30 27 1 12 27
M  V30 28 1 14 28
M  V30 29 1 14 29
M  V30 END BOND
M  V30 END CTAB
M  END
