
     RDKit          3D

  0  0  0  0  0  0  0  0  0  0999 V3000
M  V30 BEGIN CTAB
M  V30 COUNTS 96 106 0 0 0
M  V30 BEGIN ATOM
M  V30 1 N 13.3741 0.368227 1.1873 0
M  V30 2 C 11.9532 0.313461 0.992818 0
M  V30 3 C 11.3487 0.892257 -0.101518 0
M  V30 4 C 9.96993 0.833765 -0.279727 0
M  V30 5 C 9.15607 0.195938 0.629455 0
M  V30 6 C 9.77447 -0.382356 1.72576 0
M  V30 7 C 11.1426 -0.327373 1.90772 0
M  V30 8 C 7.71247 0.117303 0.482545 0
M  V30 9 N 6.98436 -0.52482 1.40473 0
M  V30 10 C 5.65301 -0.638002 1.35 0
M  V30 11 C 4.93475 -1.29277 2.32893 0
M  V30 12 C 3.56274 -1.38033 2.26243 0
M  V30 13 C 2.85092 -0.819565 1.21967 0
M  V30 14 C 3.59934 -0.162254 0.238967 0
M  V30 15 C 4.97025 -0.0586093 0.274955 0
M  V30 16 C 5.69193 0.600311 -0.680117 0
M  V30 17 N 7.04292 0.663393 -0.536997 0
M  V30 18 C 5.04511 1.22758 -1.81512 0
M  V30 19 C 5.3178 2.572 -2.04687 0
M  V30 20 C 4.7947 3.24262 -3.13062 0
M  V30 21 C 3.97577 2.60282 -4.03274 0
M  V30 22 C 3.68983 1.26527 -3.82416 0
M  V30 23 C 4.22761 0.619312 -2.73059 0
M  V30 24 C 1.39908 -0.897377 1.14395 0
M  V30 25 C 0.711732 -1.99068 0.635827 0
M  V30 26 C 1.42207 -3.06761 0.152721 0
M  V30 27 C 0.765488 -4.16285 -0.35664 0
M  V30 28 C -0.610871 -4.1955 -0.389685 0
M  V30 29 C -1.32294 -3.09961 0.102017 0
M  V30 30 C -0.678013 -2.00252 0.612175 0
M  V30 31 C -1.40624 -0.953621 1.08174 0
M  V30 32 C -0.754752 0.142896 1.58993 0
M  V30 33 C 0.633786 0.173493 1.62183 0
M  V30 34 C 1.25468 1.29059 2.13788 0
M  V30 35 C 0.498825 2.33946 2.60512 0
M  V30 36 C -0.883809 2.30157 2.57005 0
M  V30 37 C -1.52978 1.19162 2.05695 0
M  V30 38 C -2.86564 -1.00668 1.05445 0
M  V30 39 C -3.58067 -1.69551 2.01134 0
M  V30 40 C -4.95254 -1.71768 1.96245 0
M  V30 41 C -5.66422 -1.0726 0.985733 0
M  V30 42 C -4.9591 -0.362173 -0.00120578 0
M  V30 43 C -3.59046 -0.344755 0.0516442 0
M  V30 44 C -5.69185 0.265334 -0.974123 0
M  V30 45 N -7.06445 0.197898 -0.984571 0
M  V30 46 C -7.72481 -0.481685 -0.0419785 0
M  V30 47 N -6.99509 -1.09385 0.9125 0
M  V30 48 C -9.18508 -0.55702 -0.0397099 0
M  V30 49 C -9.86931 0.0992625 -1.03552 0
M  V30 50 C -11.2591 0.0336461 -1.04044 0
M  V30 51 C -11.9308 -0.677782 -0.0622602 0
M  V30 52 C -11.1874 -1.32688 0.927354 0
M  V30 53 C -9.8036 -1.26871 0.942603 0
M  V30 54 N -13.3485 -0.753754 -0.0533425 0
M  V30 55 C -5.03046 1.01425 -2.02799 0
M  V30 56 C -5.25994 0.735355 -3.37073 0
M  V30 57 C -4.66242 1.52068 -4.32849 0
M  V30 58 C -3.83869 2.58138 -4.0046 0
M  V30 59 C -3.62824 2.83602 -2.67697 0
M  V30 60 C -4.21375 2.06636 -1.71079 0
M  V30 61 H 13.8075 1.26964 1.46824 0
M  V30 62 H 13.9943 -0.466666 1.05743 0
M  V30 63 H 11.9917 1.38795 -0.806361 0
M  V30 64 H 9.51426 1.30107 -1.15757 0
M  V30 65 H 9.12048 -0.88214 2.435 0
M  V30 66 H 11.6145 -0.786007 2.77381 0
M  V30 67 H 5.50345 -1.73635 3.15525 0
M  V30 68 H 3.00712 -1.89453 3.03191 0
M  V30 69 H 3.04158 0.290484 -0.560475 0
M  V30 70 H 5.96168 3.0874 -1.34277 0
M  V30 71 H 5.01098 4.28586 -3.30341 0
M  V30 72 H 3.54566 3.10559 -4.9014 0
M  V30 73 H 3.05147 0.740234 -4.5144 0
M  V30 74 H 3.9961 -0.418442 -2.59762 0
M  V30 75 H 2.5081 -3.03847 0.180157 0
M  V30 76 H 1.35215 -4.99125 -0.727563 0
M  V30 77 H -1.15947 -5.05233 -0.788511 0
M  V30 78 H -2.40118 -3.11627 0.0796241 0
M  V30 79 H 2.32699 1.31731 2.16376 0
M  V30 80 H 1.00364 3.21044 3.00756 0
M  V30 81 H -1.47034 3.1508 2.94874 0
M  V30 82 H -2.61728 1.16606 2.03134 0
M  V30 83 H -3.03 -2.21935 2.80407 0
M  V30 84 H -5.52331 -2.25867 2.7129 0
M  V30 85 H -3.01553 0.173707 -0.710712 0
M  V30 86 H -9.39923 0.669673 -1.8242 0
M  V30 87 H -11.7972 0.549529 -1.82265 0
M  V30 88 H -11.7449 -1.87528 1.67764 0
M  V30 89 H -9.27402 -1.79869 1.74494 0
M  V30 90 H -13.8456 -1.2673 -0.792168 0
M  V30 91 H -13.9398 -0.303672 0.684585 0
M  V30 92 H -5.90954 -0.100895 -3.62912 0
M  V30 93 H -4.82149 1.32927 -5.36767 0
M  V30 94 H -3.37846 3.18661 -4.76562 0
M  V30 95 H -2.98283 3.66764 -2.41637 0
M  V30 96 H -4.0074 2.32789 -0.675011 0
M  V30 END ATOM
M  V30 BEGIN BOND
M  V30 1 1 1 2
M  V30 2 2 2 3
M  V30 3 1 3 4
M  V30 4 2 4 5
M  V30 5 1 5 6
M  V30 6 2 6 7
M  V30 7 1 5 8
M  V30 8 2 8 9
M  V30 9 1 9 10
M  V30 10 2 10 11
M  V30 11 1 11 12
M  V30 12 2 12 13
M  V30 13 1 13 14
M  V30 14 2 14 15
M  V30 15 1 15 16
M  V30 16 2 16 17
M  V30 17 1 16 18
M  V30 18 2 18 19
M  V30 19 1 19 20
M  V30 20 2 20 21
M  V30 21 1 21 22
M  V30 22 2 22 23
M  V30 23 1 13 24
M  V30 24 1 24 25
M  V30 25 2 25 26
M  V30 26 1 26 27
M  V30 27 2 27 28
M  V30 28 1 28 29
M  V30 29 2 29 30
M  V30 30 1 30 31
M  V30 31 2 31 32
M  V30 32 1 32 33
M  V30 33 1 33 34
M  V30 34 2 34 35
M  V30 35 1 35 36
M  V30 36 2 36 37
M  V30 37 1 31 38
M  V30 38 2 38 39
M  V30 39 1 39 40
M  V30 40 2 40 41
M  V30 41 1 41 42
M  V30 42 2 42 43
M  V30 43 1 42 44
M  V30 44 2 44 45
M  V30 45 1 45 46
M  V30 46 2 46 47
M  V30 47 1 46 48
M  V30 48 2 48 49
M  V30 49 1 49 50
M  V30 50 2 50 51
M  V30 51 1 51 52
M  V30 52 2 52 53
M  V30 53 1 51 54
M  V30 54 1 44 55
M  V30 55 2 55 56
M  V30 56 1 56 57
M  V30 57 2 57 58
M  V30 58 1 58 59
M  V30 59 2 59 60
M  V30 60 1 7 2
M  V30 61 1 17 8
M  V30 62 1 23 18
M  V30 63 2 33 24
M  V30 64 1 43 38
M  V30 65 1 53 48
M  V30 66 1 60 55
M  V30 67 1 15 10
M  V30 68 1 30 25
M  V30 69 1 37 32
M  V30 70 1 47 41
M  V30 71 1 1 61
M  V30 72 1 1 62
M  V30 73 1 3 63
M  V30 74 1 4 64
M  V30 75 1 6 65
M  V30 76 1 7 66
M  V30 77 1 11 67
M  V30 78 1 12 68
M  V30 79 1 14 69
M  V30 80 1 19 70
M  V30 81 1 20 71
M  V30 82 1 21 72
M  V30 83 1 22 73
M  V30 84 1 23 74
M  V30 85 1 26 75
M  V30 86 1 27 76
M  V30 87 1 28 77
M  V30 88 1 29 78
M  V30 89 1 34 79
M  V30 90 1 35 80
M  V30 91 1 36 81
M  V30 92 1 37 82
M  V30 93 1 39 83
M  V30 94 1 40 84
M  V30 95 1 43 85
M  V30 96 1 49 86
M  V30 97 1 50 87
M  V30 98 1 52 88
M  V30 99 1 53 89
M  V30 100 1 54 90
M  V30 101 1 54 91
M  V30 102 1 56 92
M  V30 103 1 57 93
M  V30 104 1 58 94
M  V30 105 1 59 95
M  V30 106 1 60 96
M  V30 END BOND
M  V30 END CTAB
M  END
