
     RDKit          3D

  0  0  0  0  0  0  0  0  0  0999 V3000
M  V30 BEGIN CTAB
M  V30 COUNTS 25 25 0 0 0
M  V30 BEGIN ATOM
M  V30 1 C -3.19755 0.961597 0.903251 0
M  V30 2 C -2.35835 1.26955 -0.333868 0
M  V30 3 C -1.04684 0.603583 -0.120717 0
M  V30 4 N 0.0432612 1.14771 0.479705 0
M  V30 5 C 1.02741 0.235432 0.479835 0
M  V30 6 C 0.520038 -0.877612 -0.131432 0
M  V30 7 N -0.750974 -0.655255 -0.501258 0
M  V30 8 N -1.61208 -1.54413 -1.15113 0
M  V30 9 N 1.20465 -2.09135 -0.346193 0
M  V30 10 C 2.37917 0.410299 1.0271 0
M  V30 11 C 3.45245 0.674088 0.0266582 0
M  V30 12 F 3.23274 1.8233 -0.712654 0
M  V30 13 F 3.60864 -0.358191 -0.859915 0
M  V30 14 F 4.62737 0.856528 0.766588 0
M  V30 15 H -3.49332 -0.123221 0.806286 0
M  V30 16 H -4.12746 1.53729 0.937747 0
M  V30 17 H -2.58029 1.04106 1.80836 0
M  V30 18 H -2.83891 0.793845 -1.21004 0
M  V30 19 H -2.24252 2.36989 -0.460708 0
M  V30 20 H -1.87112 -2.42377 -0.629396 0
M  V30 21 H -1.98323 -1.35474 -2.10542 0
M  V30 22 H 1.42253 -2.67861 0.483927 0
M  V30 23 H 1.45972 -2.34488 -1.31345 0
M  V30 24 H 2.41078 1.22621 1.81378 0
M  V30 25 H 2.71387 -0.498628 1.61042 0
M  V30 END ATOM
M  V30 BEGIN BOND
M  V30 1 1 1 2
M  V30 2 1 2 3
M  V30 3 2 3 4
M  V30 4 1 4 5
M  V30 5 2 5 6
M  V30 6 1 6 7
M  V30 7 1 7 8
M  V30 8 1 6 9
M  V30 9 1 5 10
M  V30 10 1 10 11
M  V30 11 1 11 12
M  V30 12 1 11 13
M  V30 13 1 11 14
M  V30 14 1 7 3
M  V30 15 1 1 15
M  V30 16 1 1 16
M  V30 17 1 1 17
M  V30 18 1 2 18
M  V30 19 1 2 19
M  V30 20 1 8 20
M  V30 21 1 8 21
M  V30 22 1 9 22
M  V30 23 1 9 23
M  V30 24 1 10 24
M  V30 25 1 10 25
M  V30 END BOND
M  V30 END CTAB
M  END
