
     RDKit          3D

  0  0  0  0  0  0  0  0  0  0999 V3000
M  V30 BEGIN CTAB
M  V30 COUNTS 18 19 0 0 0
M  V30 BEGIN ATOM
M  V30 1 N 3.60136 -0.544906 0.219292 0
M  V30 2 C 2.17387 -0.466588 0.0857035 0
M  V30 3 N 1.51646 0.64573 0.401893 0
M  V30 4 C 0.154835 0.743829 0.28269 0
M  V30 5 N -0.459501 1.96159 0.640765 0
M  V30 6 N -0.569209 -0.290815 -0.162107 0
M  V30 7 C 0.116789 -1.42803 -0.483806 0
M  V30 8 N 1.44997 -1.49864 -0.35817 0
M  V30 9 N -0.806843 -2.31061 -0.89767 0
M  V30 10 N -1.98029 -1.77733 -0.842866 0
M  V30 11 C -1.87555 -0.464409 -0.37034 0
M  V30 12 N -3.0116 0.345913 -0.214188 0 CHG=1
M  V30 13 O -4.15289 -0.165651 -0.522194 0
M  V30 14 O -3.08265 1.6004 0.217815 0 CHG=-1
M  V30 15 H 4.13168 -1.06665 -0.507467 0
M  V30 16 H 4.13546 -0.115452 0.992268 0
M  V30 17 H -0.766724 2.13017 1.60305 0
M  V30 18 H -0.575159 2.70145 -0.0846634 0
M  V30 END ATOM
M  V30 BEGIN BOND
M  V30 1 1 1 2
M  V30 2 1 2 3
M  V30 3 2 3 4
M  V30 4 1 4 5
M  V30 5 1 4 6
M  V30 6 1 6 7
M  V30 7 1 7 8
M  V30 8 2 7 9
M  V30 9 1 9 10
M  V30 10 2 10 11
M  V30 11 1 11 12
M  V30 12 2 12 13
M  V30 13 1 12 14
M  V30 14 2 8 2
M  V30 15 1 11 6
M  V30 16 1 1 15
M  V30 17 1 1 16
M  V30 18 1 5 17
M  V30 19 1 5 18
M  V30 END BOND
M  V30 END CTAB
M  END
