
     RDKit          3D

  0  0  0  0  0  0  0  0  0  0999 V3000
M  V30 BEGIN CTAB
M  V30 COUNTS 33 34 0 0 0
M  V30 BEGIN ATOM
M  V30 1 C -1.58474 -1.47904 -1.0418 0
M  V30 2 C -1.67536 -0.498405 0.148359 0
M  V30 3 C -1.48432 -1.28361 1.43862 0
M  V30 4 N -2.95344 0.0990542 0.0731362 0
M  V30 5 C -3.17157 1.32596 -0.149382 0
M  V30 6 N -4.50659 1.8276 -0.205125 0
M  V30 7 N -2.12648 2.2849 -0.357709 0
M  V30 8 C -0.938102 1.81137 -0.303089 0
M  V30 9 N 0.171578 2.70721 -0.501484 0
M  V30 10 N -0.624786 0.452096 -0.0586202 0
M  V30 11 C 0.766967 0.0326455 -0.0199733 0
M  V30 12 C 1.49582 0.0367744 1.14689 0
M  V30 13 C 2.81882 -0.360724 1.19006 0
M  V30 14 C 3.46831 -0.782313 0.0510645 0
M  V30 15 C 2.74942 -0.791268 -1.12489 0
M  V30 16 C 1.41176 -0.387915 -1.1611 0
M  V30 17 N 4.83523 -1.19981 0.0607404 0 CHG=1
M  V30 18 O 5.58681 -1.20768 1.2017 0 CHG=-1
M  V30 19 O 5.37002 -1.57103 -1.00038 0
M  V30 20 H -1.54457 -0.894976 -1.96657 0
M  V30 21 H -2.46142 -2.15168 -0.984885 0
M  V30 22 H -0.664894 -2.09157 -0.953605 0
M  V30 23 H -0.792335 -2.12791 1.24154 0
M  V30 24 H -1.18875 -0.644837 2.27151 0
M  V30 25 H -2.49989 -1.71799 1.66701 0
M  V30 26 H -4.96692 2.05044 -1.11451 0
M  V30 27 H -5.07218 1.99053 0.656538 0
M  V30 28 H 0.412622 3.37163 0.256786 0
M  V30 29 H 0.718036 2.6965 -1.36991 0
M  V30 30 H 0.97298 0.374154 2.05336 0
M  V30 31 H 3.38144 -0.352176 2.11823 0
M  V30 32 H 3.23791 -1.11629 -2.02226 0
M  V30 33 H 0.858614 -0.401634 -2.10095 0
M  V30 END ATOM
M  V30 BEGIN BOND
M  V30 1 1 1 2
M  V30 2 1 2 3
M  V30 3 1 2 4
M  V30 4 2 4 5
M  V30 5 1 5 6
M  V30 6 1 5 7
M  V30 7 2 7 8
M  V30 8 1 8 9
M  V30 9 1 8 10
M  V30 10 1 10 11
M  V30 11 2 11 12
M  V30 12 1 12 13
M  V30 13 2 13 14
M  V30 14 1 14 15
M  V30 15 2 15 16
M  V30 16 1 14 17
M  V30 17 1 17 18
M  V30 18 2 17 19
M  V30 19 1 10 2
M  V30 20 1 16 11
M  V30 21 1 1 20
M  V30 22 1 1 21
M  V30 23 1 1 22
M  V30 24 1 3 23
M  V30 25 1 3 24
M  V30 26 1 3 25
M  V30 27 1 6 26
M  V30 28 1 6 27
M  V30 29 1 9 28
M  V30 30 1 9 29
M  V30 31 1 12 30
M  V30 32 1 13 31
M  V30 33 1 15 32
M  V30 34 1 16 33
M  V30 END BOND
M  V30 END CTAB
M  END
