
     RDKit          3D

  0  0  0  0  0  0  0  0  0  0999 V3000
M  V30 BEGIN CTAB
M  V30 COUNTS 55 57 0 0 0
M  V30 BEGIN ATOM
M  V30 1 N 6.55487 0.27651 1.71849 0
M  V30 2 C 5.91042 0.0698743 0.444197 0
M  V30 3 C 6.29134 -1.2872 -0.137581 0
M  V30 4 C 5.79201 -1.33519 -1.54531 0
M  V30 5 C 4.34081 -1.03821 -1.70339 0
M  V30 6 C 3.83042 0.0672944 -0.838903 0
M  V30 7 C 4.4 0.080675 0.545453 0
M  V30 8 N 2.37962 -0.112037 -0.698488 0
M  V30 9 C 1.46001 0.886418 -1.11318 0
M  V30 10 O 1.95791 1.94437 -1.61201 0
M  V30 11 N 0.0712433 0.702864 -0.973806 0
M  V30 12 C -0.828026 1.74776 -1.40414 0
M  V30 13 C -2.00153 1.70475 -0.444769 0
M  V30 14 C -2.80095 0.427243 -0.582391 0
M  V30 15 C -1.89943 -0.735283 -0.706075 0
M  V30 16 C -0.447567 -0.494216 -0.416024 0
M  V30 17 C -3.73914 0.387827 0.593687 0
M  V30 18 O -4.54245 1.5305 0.506472 0
M  V30 19 C -5.62085 1.34987 -0.357564 0
M  V30 20 C -6.7001 0.642444 0.472489 0
M  V30 21 C -6.02248 -0.445963 1.23252 0
M  V30 22 C -4.63607 -0.794555 0.667546 0
M  V30 23 N -4.13439 -1.82569 1.59477 0
M  V30 24 H 6.08565 1.07158 2.19251 0
M  V30 25 H 7.53841 0.578757 1.54266 0
M  V30 26 H 6.2295 0.827038 -0.313297 0
M  V30 27 H 7.37723 -1.45253 -0.14267 0
M  V30 28 H 5.74667 -2.06373 0.458976 0
M  V30 29 H 5.97211 -2.38607 -1.91643 0
M  V30 30 H 6.45016 -0.695585 -2.16421 0
M  V30 31 H 4.18707 -0.709332 -2.77299 0
M  V30 32 H 3.72481 -1.97539 -1.62449 0
M  V30 33 H 3.98521 1.06655 -1.29818 0
M  V30 34 H 4.10878 1.04064 1.01907 0
M  V30 35 H 4.05982 -0.80403 1.10975 0
M  V30 36 H 1.99856 -0.988077 -0.284972 0
M  V30 37 H -0.376157 2.75662 -1.29748 0
M  V30 38 H -1.16312 1.64819 -2.4434 0
M  V30 39 H -2.69962 2.55763 -0.592935 0
M  V30 40 H -1.59493 1.71142 0.586573 0
M  V30 41 H -3.39936 0.573424 -1.53174 0
M  V30 42 H -2.19629 -1.61882 -0.100877 0
M  V30 43 H -1.94552 -1.11702 -1.77085 0
M  V30 44 H 0.103033 -1.36243 -0.885716 0
M  V30 45 H -0.197881 -0.541075 0.656745 0
M  V30 46 H -3.142 0.489407 1.53344 0
M  V30 47 H -5.40302 0.654067 -1.19174 0
M  V30 48 H -5.98656 2.31374 -0.758873 0
M  V30 49 H -7.04632 1.40984 1.20578 0
M  V30 50 H -7.53861 0.307468 -0.15928 0
M  V30 51 H -6.59123 -1.40936 1.21336 0
M  V30 52 H -5.86849 -0.210811 2.3103 0
M  V30 53 H -4.7541 -1.25892 -0.322016 0
M  V30 54 H -3.96706 -2.72435 1.10441 0
M  V30 55 H -3.31243 -1.43888 2.08869 0
M  V30 END ATOM
M  V30 BEGIN BOND
M  V30 1 1 1 2
M  V30 2 1 2 3
M  V30 3 1 3 4
M  V30 4 1 4 5
M  V30 5 1 5 6
M  V30 6 1 6 7
M  V30 7 1 6 8
M  V30 8 1 8 9
M  V30 9 2 9 10
M  V30 10 1 9 11
M  V30 11 1 11 12
M  V30 12 1 12 13
M  V30 13 1 13 14
M  V30 14 1 14 15
M  V30 15 1 15 16
M  V30 16 1 14 17
M  V30 17 1 17 18
M  V30 18 1 18 19
M  V30 19 1 19 20
M  V30 20 1 20 21
M  V30 21 1 21 22
M  V30 22 1 22 23
M  V30 23 1 7 2
M  V30 24 1 16 11
M  V30 25 1 22 17
M  V30 26 1 1 24
M  V30 27 1 1 25
M  V30 28 1 2 26
M  V30 29 1 3 27
M  V30 30 1 3 28
M  V30 31 1 4 29
M  V30 32 1 4 30
M  V30 33 1 5 31
M  V30 34 1 5 32
M  V30 35 1 6 33
M  V30 36 1 7 34
M  V30 37 1 7 35
M  V30 38 1 8 36
M  V30 39 1 12 37
M  V30 40 1 12 38
M  V30 41 1 13 39
M  V30 42 1 13 40
M  V30 43 1 14 41
M  V30 44 1 15 42
M  V30 45 1 15 43
M  V30 46 1 16 44
M  V30 47 1 16 45
M  V30 48 1 17 46
M  V30 49 1 19 47
M  V30 50 1 19 48
M  V30 51 1 20 49
M  V30 52 1 20 50
M  V30 53 1 21 51
M  V30 54 1 21 52
M  V30 55 1 22 53
M  V30 56 1 23 54
M  V30 57 1 23 55
M  V30 END BOND
M  V30 END CTAB
M  END
