
     RDKit          3D

  0  0  0  0  0  0  0  0  0  0999 V3000
M  V30 BEGIN CTAB
M  V30 COUNTS 25 26 0 0 0
M  V30 BEGIN ATOM
M  V30 1 N 3.84097 0.909892 1.3377 0
M  V30 2 N 3.59341 0.100702 0.291625 0
M  V30 3 C 2.5794 -0.318211 -0.290138 0
M  V30 4 N 2.77346 -1.20899 -1.42049 0
M  V30 5 C 1.18548 -0.0288381 0.0166277 0
M  V30 6 C 0.165356 -0.601054 -0.761342 0
M  V30 7 C -1.16393 -0.372964 -0.529982 0
M  V30 8 C -1.50789 0.46363 0.524164 0
M  V30 9 C -2.86092 0.692822 0.755879 0
M  V30 10 C -3.85206 0.12401 -0.0163992 0
M  V30 11 C -3.50118 -0.707075 -1.06318 0
M  V30 12 C -2.16121 -0.93846 -1.2983 0
M  V30 13 C -0.530069 1.03365 1.2974 0
M  V30 14 C 0.827242 0.799091 1.05904 0
M  V30 15 H 3.79104 1.95724 1.17404 0
M  V30 16 H 4.08458 0.568141 2.32265 0
M  V30 17 H 2.97901 -2.19408 -1.20009 0
M  V30 18 H 2.71403 -0.897238 -2.39958 0
M  V30 19 H 0.446191 -1.24416 -1.57095 0
M  V30 20 H -3.11425 1.34597 1.57956 0
M  V30 21 H -4.90401 0.297477 0.157709 0
M  V30 22 H -4.27688 -1.16981 -1.69006 0
M  V30 23 H -1.87127 -1.59023 -2.11855 0
M  V30 24 H -0.781245 1.68641 2.1207 0
M  V30 25 H 1.54476 1.29209 1.72198 0
M  V30 END ATOM
M  V30 BEGIN BOND
M  V30 1 1 1 2
M  V30 2 2 2 3 CFG=2
M  V30 3 1 3 4
M  V30 4 1 3 5
M  V30 5 2 5 6
M  V30 6 1 6 7
M  V30 7 2 7 8
M  V30 8 1 8 9
M  V30 9 2 9 10
M  V30 10 1 10 11
M  V30 11 2 11 12
M  V30 12 1 8 13
M  V30 13 2 13 14
M  V30 14 1 14 5
M  V30 15 1 12 7
M  V30 16 1 1 15
M  V30 17 1 1 16
M  V30 18 1 4 17
M  V30 19 1 4 18
M  V30 20 1 6 19
M  V30 21 1 9 20
M  V30 22 1 10 21
M  V30 23 1 11 22
M  V30 24 1 12 23
M  V30 25 1 13 24
M  V30 26 1 14 25
M  V30 END BOND
M  V30 END CTAB
M  END
