
     RDKit          3D

  0  0  0  0  0  0  0  0  0  0999 V3000
M  V30 BEGIN CTAB
M  V30 COUNTS 22 22 0 0 0
M  V30 BEGIN ATOM
M  V30 1 O 4.24648 -1.17837 -0.365603 0
M  V30 2 C 2.95563 -0.685532 -0.431473 0
M  V30 3 O 2.56613 -0.207675 -1.51155 0
M  V30 4 C 2.06193 -0.724137 0.737262 0
M  V30 5 C 0.74046 -0.138346 0.420144 0
M  V30 6 C -0.34085 -0.954388 0.186032 0
M  V30 7 C -1.60092 -0.452836 -0.117416 0
M  V30 8 N -2.70008 -1.32131 -0.358113 0
M  V30 9 C -1.77821 0.923053 -0.187164 0
M  V30 10 C -0.68248 1.71666 0.0511309 0
M  V30 11 C 0.571903 1.24478 0.35238 0
M  V30 12 Cl 1.94646 2.28296 0.650723 0
M  V30 13 N -3.06154 1.44525 -0.493397 0
M  V30 14 H 4.98373 -0.748873 0.174516 0
M  V30 15 H 2.49311 -0.147721 1.59958 0
M  V30 16 H 1.8961 -1.74923 1.10848 0
M  V30 17 H -0.233864 -2.04648 0.233082 0
M  V30 18 H -3.56007 -1.00177 -0.830174 0
M  V30 19 H -2.64021 -2.29853 -0.0542903 0
M  V30 20 H -0.820974 2.78851 -0.00240383 0
M  V30 21 H -3.29012 1.73976 -1.44153 0
M  V30 22 H -3.7526 1.51424 0.279788 0
M  V30 END ATOM
M  V30 BEGIN BOND
M  V30 1 1 1 2
M  V30 2 2 2 3
M  V30 3 1 2 4
M  V30 4 1 4 5
M  V30 5 2 5 6
M  V30 6 1 6 7
M  V30 7 1 7 8
M  V30 8 2 7 9
M  V30 9 1 9 10
M  V30 10 2 10 11
M  V30 11 1 11 12
M  V30 12 1 9 13
M  V30 13 1 11 5
M  V30 14 1 1 14
M  V30 15 1 4 15
M  V30 16 1 4 16
M  V30 17 1 6 17
M  V30 18 1 8 18
M  V30 19 1 8 19
M  V30 20 1 10 20
M  V30 21 1 13 21
M  V30 22 1 13 22
M  V30 END BOND
M  V30 END CTAB
M  END
