
     RDKit          3D

  0  0  0  0  0  0  0  0  0  0999 V3000
M  V30 BEGIN CTAB
M  V30 COUNTS 24 24 0 0 0
M  V30 BEGIN ATOM
M  V30 1 O -3.46441 -2.20793 -0.291943 0
M  V30 2 N -2.77182 -1.35661 -1.10588 0
M  V30 3 C -2.30781 -0.258993 -0.621136 0
M  V30 4 C -1.56004 0.645925 -1.52769 0
M  V30 5 O -0.372761 1.01311 -0.954543 0
M  V30 6 C 0.725249 0.338108 -0.53994 0
M  V30 7 C 0.939632 -1.01528 -0.606549 0
M  V30 8 C 2.09535 -1.63194 -0.1596 0
M  V30 9 C 3.0794 -0.844613 0.379008 0
M  V30 10 C 2.92649 0.520201 0.474401 0
M  V30 11 C 1.76637 1.09419 0.0204792 0
M  V30 12 N 1.62771 2.49866 0.127083 0
M  V30 13 N -2.54374 0.0564623 0.743513 0
M  V30 14 H -4.47571 -2.29729 -0.472898 0
M  V30 15 H -1.45124 0.112649 -2.50522 0
M  V30 16 H -2.24705 1.52432 -1.71658 0
M  V30 17 H 0.184347 -1.64448 -1.02993 0
M  V30 18 H 2.23103 -2.71522 -0.228859 0
M  V30 19 H 4.01218 -1.26617 0.748934 0
M  V30 20 H 3.72627 1.11442 0.906526 0
M  V30 21 H 1.28238 3.03956 -0.688118 0
M  V30 22 H 1.88484 2.94921 1.04593 0
M  V30 23 H -1.78394 0.407309 1.35285 0
M  V30 24 H -3.50274 -0.0755959 1.11226 0
M  V30 END ATOM
M  V30 BEGIN BOND
M  V30 1 1 1 2
M  V30 2 2 2 3 CFG=2
M  V30 3 1 3 4
M  V30 4 1 4 5
M  V30 5 1 5 6
M  V30 6 2 6 7
M  V30 7 1 7 8
M  V30 8 2 8 9
M  V30 9 1 9 10
M  V30 10 2 10 11
M  V30 11 1 11 12
M  V30 12 1 3 13
M  V30 13 1 11 6
M  V30 14 1 1 14
M  V30 15 1 4 15
M  V30 16 1 4 16
M  V30 17 1 7 17
M  V30 18 1 8 18
M  V30 19 1 9 19
M  V30 20 1 10 20
M  V30 21 1 12 21
M  V30 22 1 12 22
M  V30 23 1 13 23
M  V30 24 1 13 24
M  V30 END BOND
M  V30 END CTAB
M  END
