
     RDKit          3D

  0  0  0  0  0  0  0  0  0  0999 V3000
M  V30 BEGIN CTAB
M  V30 COUNTS 28 29 0 0 0
M  V30 BEGIN ATOM
M  V30 1 N -2.51323 -1.7814 -0.0951777 0
M  V30 2 C -2.47412 -0.400255 0.315692 0
M  V30 3 C -3.68349 0.146636 0.630585 0
M  V30 4 C -3.73661 1.46177 1.02704 0
M  V30 5 C -2.58372 2.19805 1.10045 0
M  V30 6 C -1.34948 1.59593 0.767002 0
M  V30 7 C -1.24946 0.292532 0.366371 0
M  V30 8 C -0.0633973 -0.433514 0.0616825 0
M  V30 9 O -0.271372 -1.72378 -0.0888281 0
M  V30 10 C 1.30986 -0.0627846 -0.116939 0
M  V30 11 C 2.23775 -1.11485 -0.265523 0
M  V30 12 N 1.83298 -2.48073 -0.178683 0
M  V30 13 C 3.55864 -0.816794 -0.493263 0
M  V30 14 C 4.0328 0.472444 -0.58563 0
M  V30 15 C 3.15124 1.51562 -0.445598 0
M  V30 16 C 1.80786 1.21437 -0.214839 0
M  V30 17 H -2.5388 -2.47257 0.686333 0
M  V30 18 H -2.51627 -2.08018 -1.07781 0
M  V30 19 H -4.6034 -0.455808 0.568294 0
M  V30 20 H -4.68843 1.88995 1.27357 0
M  V30 21 H -2.57097 3.23855 1.4072 0
M  V30 22 H -0.476154 2.19177 0.873038 0
M  V30 23 H 1.73488 -2.89455 0.772102 0
M  V30 24 H 1.6361 -3.06676 -1.01559 0
M  V30 25 H 4.24326 -1.67619 -0.602202 0
M  V30 26 H 5.09498 0.650708 -0.767711 0
M  V30 27 H 3.5005 2.53658 -0.514254 0
M  V30 28 H 1.17805 2.05525 -0.153869 0
M  V30 END ATOM
M  V30 BEGIN BOND
M  V30 1 1 1 2
M  V30 2 2 2 3
M  V30 3 1 3 4
M  V30 4 2 4 5
M  V30 5 1 5 6
M  V30 6 2 6 7
M  V30 7 1 7 8
M  V30 8 2 8 9
M  V30 9 1 8 10
M  V30 10 2 10 11
M  V30 11 1 11 12
M  V30 12 1 11 13
M  V30 13 2 13 14
M  V30 14 1 14 15
M  V30 15 2 15 16
M  V30 16 1 7 2
M  V30 17 1 16 10
M  V30 18 1 1 17
M  V30 19 1 1 18
M  V30 20 1 3 19
M  V30 21 1 4 20
M  V30 22 1 5 21
M  V30 23 1 6 22
M  V30 24 1 12 23
M  V30 25 1 12 24
M  V30 26 1 13 25
M  V30 27 1 14 26
M  V30 28 1 15 27
M  V30 29 1 16 28
M  V30 END BOND
M  V30 END CTAB
M  END
