
     RDKit          3D

  0  0  0  0  0  0  0  0  0  0999 V3000
M  V30 BEGIN CTAB
M  V30 COUNTS 32 33 0 0 0
M  V30 BEGIN ATOM
M  V30 1 C 0.0484408 1.96429 1.7185 0
M  V30 2 C 0.00981448 1.40533 0.321003 0
M  V30 3 C -1.22915 0.589531 0.18246 0
M  V30 4 C -1.72316 -0.195773 1.20009 0
M  V30 5 C -2.87055 -0.94799 1.0682 0
M  V30 6 C -3.5779 -0.941498 -0.108126 0
M  V30 7 N -4.76474 -1.71178 -0.262656 0
M  V30 8 C -3.09018 -0.158301 -1.13132 0
M  V30 9 C -1.94588 0.599909 -1.0184 0
M  V30 10 C 1.23571 0.683189 -0.00882022 0
M  V30 11 C 1.79648 0.823239 -1.27024 0
M  V30 12 C 2.94532 0.162342 -1.63242 0
M  V30 13 C 3.56542 -0.66673 -0.720494 0
M  V30 14 N 4.75603 -1.3477 -1.10489 0
M  V30 15 C 3.01214 -0.807177 0.529174 0
M  V30 16 C 1.86312 -0.143247 0.884321 0
M  V30 17 H -0.95859 2.36314 2.01927 0
M  V30 18 H 0.728294 2.83822 1.80655 0
M  V30 19 H 0.27969 1.15699 2.4106 0
M  V30 20 H -0.0741514 2.28142 -0.379451 0
M  V30 21 H -1.16827 -0.215715 2.15406 0
M  V30 22 H -3.24031 -1.55567 1.87633 0
M  V30 23 H -5.09095 -1.97337 -1.19823 0
M  V30 24 H -5.32437 -2.02496 0.560447 0
M  V30 25 H -3.65657 -0.156047 -2.06646 0
M  V30 26 H -1.60923 1.18915 -1.83791 0
M  V30 27 H 1.35361 1.46036 -2.027 0
M  V30 28 H 3.36959 0.284247 -2.62417 0
M  V30 29 H 5.67509 -0.946361 -0.823271 0
M  V30 30 H 4.67647 -2.22423 -1.65446 0
M  V30 31 H 3.50384 -1.46273 1.24792 0
M  V30 32 H 1.50496 -0.322084 1.88939 0
M  V30 END ATOM
M  V30 BEGIN BOND
M  V30 1 1 1 2
M  V30 2 1 2 3
M  V30 3 2 3 4
M  V30 4 1 4 5
M  V30 5 2 5 6
M  V30 6 1 6 7
M  V30 7 1 6 8
M  V30 8 2 8 9
M  V30 9 1 2 10
M  V30 10 2 10 11
M  V30 11 1 11 12
M  V30 12 2 12 13
M  V30 13 1 13 14
M  V30 14 1 13 15
M  V30 15 2 15 16
M  V30 16 1 9 3
M  V30 17 1 16 10
M  V30 18 1 1 17
M  V30 19 1 1 18
M  V30 20 1 1 19
M  V30 21 1 2 20
M  V30 22 1 4 21
M  V30 23 1 5 22
M  V30 24 1 7 23
M  V30 25 1 7 24
M  V30 26 1 8 25
M  V30 27 1 9 26
M  V30 28 1 11 27
M  V30 29 1 12 28
M  V30 30 1 14 29
M  V30 31 1 14 30
M  V30 32 1 15 31
M  V30 33 1 16 32
M  V30 END BOND
M  V30 END CTAB
M  END
