
     RDKit          3D

  0  0  0  0  0  0  0  0  0  0999 V3000
M  V30 BEGIN CTAB
M  V30 COUNTS 59 62 0 0 0
M  V30 BEGIN ATOM
M  V30 1 C -0.995652 0.948205 -1.61319 0 CFG=1
M  V30 2 S -0.315548 2.44138 -0.912827 0
M  V30 3 C 1.3015 1.96089 -0.326506 0
M  V30 4 C 2.01041 1.02381 -1.32026 0
M  V30 5 C 3.4315 1.163 -1.23078 0
M  V30 6 S 4.61611 -0.0311807 -1.71027 0
M  V30 7 C 4.73668 -1.46696 -0.700292 0
M  V30 8 N 4.07523 -2.61524 -0.820805 0
M  V30 9 N 4.44928 -3.45471 0.143037 0
M  V30 10 N 5.35042 -2.79919 0.854091 0
M  V30 11 N 5.55304 -1.58727 0.373563 0
M  V30 12 C 6.46986 -0.640334 0.931476 0
M  V30 13 C 7.86152 -0.765977 0.314522 0
M  V30 14 C 8.75779 0.28192 0.975401 0
M  V30 15 N 10.0677 0.135617 0.370435 0
M  V30 16 C 1.36213 0.099713 -1.95157 0
M  V30 17 N -0.0646488 -0.11544 -1.73248 0
M  V30 18 C -1.1794 -0.981039 -1.54165 0
M  V30 19 O -1.46332 -2.09901 -1.99794 0
M  V30 20 C -1.69848 0.0762043 -0.631737 0
M  V30 21 N -3.162 0.212676 -0.625781 0
M  V30 22 C -3.7872 0.180026 0.618893 0
M  V30 23 O -3.00492 0.0281216 1.65636 0
M  V30 24 C -5.19462 0.297407 0.860528 0
M  V30 25 N -5.59393 0.239465 2.10369 0
M  V30 26 O -6.91311 0.34388 2.39983 0
M  V30 27 C -7.47655 -0.718253 3.17518 0
M  V30 28 C -8.8768 -0.412829 3.39593 0
M  V30 29 C -10.0384 -0.169124 3.58803 0
M  V30 30 C -6.19691 0.487353 -0.208445 0
M  V30 31 N -5.85716 0.544125 -1.49566 0
M  V30 32 S -7.31285 0.770887 -2.29024 0
M  V30 33 C -8.3354 0.786072 -0.912894 0
M  V30 34 N -9.76549 0.944882 -0.842153 0
M  V30 35 N -7.4731 0.613993 0.0639273 0
M  V30 36 C 1.85854 -0.66396 -3.08877 0
M  V30 37 O 3.04033 -0.419408 -3.70789 0
M  V30 38 O 1.20659 -1.64854 -3.60019 0
M  V30 39 H -1.581 1.12169 -2.49202 0
M  V30 40 H 1.28115 1.5131 0.675577 0
M  V30 41 H 1.92478 2.8695 -0.287931 0
M  V30 42 H 3.72274 2.14928 -1.74617 0
M  V30 43 H 3.67431 1.38996 -0.112447 0
M  V30 44 H 6.55668 -0.813595 2.01973 0
M  V30 45 H 6.16912 0.415744 0.785121 0
M  V30 46 H 8.26822 -1.7718 0.430743 0
M  V30 47 H 7.83344 -0.518031 -0.767622 0
M  V30 48 H 8.35737 1.30299 0.807895 0
M  V30 49 H 8.80969 0.139096 2.07329 0
M  V30 50 H 10.8352 0.178324 1.07473 0
M  V30 51 H 10.1412 -0.655291 -0.279876 0
M  V30 52 H -1.23098 -0.0168373 0.350734 0
M  V30 53 H -3.55439 0.317827 -1.57303 0
M  V30 54 H -6.92375 -0.791435 4.14292 0
M  V30 55 H -7.34047 -1.64828 2.56618 0
M  V30 56 H -11.0775 0.040526 3.74446 0
M  V30 57 H -10.3341 0.185702 -0.485278 0
M  V30 58 H -10.1635 1.83373 -1.16064 0
M  V30 59 H 3.18866 -0.233389 -4.69622 0
M  V30 END ATOM
M  V30 BEGIN BOND
M  V30 1 1 1 2
M  V30 2 1 2 3
M  V30 3 1 3 4
M  V30 4 1 4 5
M  V30 5 1 5 6
M  V30 6 1 6 7
M  V30 7 2 7 8
M  V30 8 1 8 9
M  V30 9 2 9 10
M  V30 10 1 10 11
M  V30 11 1 11 12
M  V30 12 1 12 13
M  V30 13 1 13 14
M  V30 14 1 14 15
M  V30 15 2 4 16
M  V30 16 1 16 17
M  V30 17 1 17 18
M  V30 18 2 18 19
M  V30 19 1 18 20
M  V30 20 1 20 21
M  V30 21 1 21 22
M  V30 22 2 22 23
M  V30 23 1 22 24
M  V30 24 2 24 25
M  V30 25 1 25 26
M  V30 26 1 26 27
M  V30 27 1 27 28
M  V30 28 3 28 29
M  V30 29 1 24 30
M  V30 30 2 30 31
M  V30 31 1 31 32
M  V30 32 1 32 33
M  V30 33 1 33 34
M  V30 34 2 33 35
M  V30 35 1 16 36
M  V30 36 1 36 37
M  V30 37 2 36 38
M  V30 38 1 17 1
M  V30 39 1 35 30
M  V30 40 1 20 1
M  V30 41 1 11 7
M  V30 42 1 1 39 CFG=3
M  V30 43 1 3 40
M  V30 44 1 3 41
M  V30 45 1 5 42
M  V30 46 1 5 43
M  V30 47 1 12 44
M  V30 48 1 12 45
M  V30 49 1 13 46
M  V30 50 1 13 47
M  V30 51 1 14 48
M  V30 52 1 14 49
M  V30 53 1 15 50
M  V30 54 1 15 51
M  V30 55 1 20 52
M  V30 56 1 21 53
M  V30 57 1 27 54
M  V30 58 1 27 55
M  V30 59 1 29 56
M  V30 60 1 34 57
M  V30 61 1 34 58
M  V30 62 1 37 59
M  V30 END BOND
M  V30 END CTAB
M  END
