
     RDKit          3D

  0  0  0  0  0  0  0  0  0  0999 V3000
M  V30 BEGIN CTAB
M  V30 COUNTS 22 21 0 0 0
M  V30 BEGIN ATOM
M  V30 1 N 3.50181 0.188536 0.616779 0
M  V30 2 O 2.17849 0.392833 0.429745 0
M  V30 3 C 1.88719 0.482217 -0.922251 0
M  V30 4 C 0.375702 0.712637 -1.04974 0
M  V30 5 C -0.275291 -0.467778 -0.411497 0
M  V30 6 C -1.77293 -0.468697 -0.423742 0
M  V30 7 C -2.40586 0.664013 0.264966 0
M  V30 8 O -2.21593 1.83605 -0.136722 0
M  V30 9 O -3.22958 0.505663 1.37183 0
M  V30 10 N -2.18923 -1.73515 0.196952 0
M  V30 11 H 3.7515 -0.705808 0.149013 0
M  V30 12 H 4.02316 0.97512 0.190435 0
M  V30 13 H 2.46487 1.22903 -1.46061 0
M  V30 14 H 2.10654 -0.516062 -1.36254 0
M  V30 15 H 0.0764353 0.875336 -2.08583 0
M  V30 16 H 0.193092 1.6492 -0.445337 0
M  V30 17 H 0.115491 -0.502615 0.650163 0
M  V30 18 H 0.146073 -1.37654 -0.891122 0
M  V30 19 H -2.08805 -0.563568 -1.49536 0
M  V30 20 H -3.12146 1.17885 2.13507 0
M  V30 21 H -1.70034 -1.83616 1.11765 0
M  V30 22 H -1.82168 -2.5171 -0.402725 0
M  V30 END ATOM
M  V30 BEGIN BOND
M  V30 1 1 1 2
M  V30 2 1 2 3
M  V30 3 1 3 4
M  V30 4 1 4 5
M  V30 5 1 5 6
M  V30 6 1 6 7
M  V30 7 2 7 8
M  V30 8 1 7 9
M  V30 9 1 6 10
M  V30 10 1 1 11
M  V30 11 1 1 12
M  V30 12 1 3 13
M  V30 13 1 3 14
M  V30 14 1 4 15
M  V30 15 1 4 16
M  V30 16 1 5 17
M  V30 17 1 5 18
M  V30 18 1 6 19
M  V30 19 1 9 20
M  V30 20 1 10 21
M  V30 21 1 10 22
M  V30 END BOND
M  V30 END CTAB
M  END
