
     RDKit          3D

  0  0  0  0  0  0  0  0  0  0999 V3000
M  V30 BEGIN CTAB
M  V30 COUNTS 46 47 0 0 0
M  V30 BEGIN ATOM
M  V30 1 N 8.77979 -0.116691 0.770807 0
M  V30 2 C 7.47317 0.0104054 0.223424 0
M  V30 3 C 6.41215 -0.725435 0.691994 0
M  V30 4 C 5.13091 -0.583146 0.135858 0
M  V30 5 C 4.86787 0.287278 -0.89217 0
M  V30 6 O 3.65318 0.487719 -1.48298 0
M  V30 7 C 2.40297 -0.0425127 -1.23933 0
M  V30 8 C 1.89119 0.365369 0.103015 0
M  V30 9 C 0.521323 -0.219598 0.428265 0
M  V30 10 C -0.511657 0.220419 -0.565102 0
M  V30 11 C -1.86246 -0.369843 -0.265583 0
M  V30 12 C -2.35775 0.0433044 1.08442 0
M  V30 13 O -3.60226 -0.428744 1.42417 0
M  V30 14 C -4.84406 -0.263992 0.938587 0
M  V30 15 C -5.20344 0.522254 -0.122654 0
M  V30 16 C -6.51154 0.656189 -0.590245 0
M  V30 17 C -7.51224 -0.0277226 0.031988 0
M  V30 18 N -8.8714 0.073286 -0.406346 0
M  V30 19 C -7.20223 -0.828264 1.10088 0
M  V30 20 C -5.91759 -0.949817 1.54711 0
M  V30 21 C 5.97097 1.03321 -1.35947 0
M  V30 22 C 7.21784 0.885676 -0.809196 0
M  V30 23 H 9.49731 0.622857 0.706723 0
M  V30 24 H 9.04309 -0.99925 1.26723 0
M  V30 25 H 6.57921 -1.43002 1.51117 0
M  V30 26 H 4.33385 -1.20798 0.526957 0
M  V30 27 H 1.72292 0.26821 -2.06968 0
M  V30 28 H 2.47468 -1.17827 -1.25535 0
M  V30 29 H 2.62635 0.181864 0.882772 0
M  V30 30 H 1.80051 1.49698 0.0551591 0
M  V30 31 H 0.630855 -1.31907 0.420925 0
M  V30 32 H 0.209886 0.177298 1.43042 0
M  V30 33 H -0.649093 1.3396 -0.472992 0
M  V30 34 H -0.20628 -0.0188799 -1.61261 0
M  V30 35 H -1.7316 -1.49369 -0.319043 0
M  V30 36 H -2.5655 -0.133198 -1.06463 0
M  V30 37 H -1.61279 -0.345922 1.84109 0
M  V30 38 H -2.33067 1.17331 1.10487 0
M  V30 39 H -4.4415 1.09149 -0.629663 0
M  V30 40 H -6.74864 1.28786 -1.43191 0
M  V30 41 H -9.50555 -0.750791 -0.357623 0
M  V30 42 H -9.2376 0.969599 -0.777069 0
M  V30 43 H -8.01052 -1.36466 1.584 0
M  V30 44 H -5.68401 -1.5816 2.38816 0
M  V30 45 H 5.79796 1.72319 -2.16469 0
M  V30 46 H 8.08241 1.46173 -1.16608 0
M  V30 END ATOM
M  V30 BEGIN BOND
M  V30 1 1 1 2
M  V30 2 2 2 3
M  V30 3 1 3 4
M  V30 4 2 4 5
M  V30 5 1 5 6
M  V30 6 1 6 7
M  V30 7 1 7 8
M  V30 8 1 8 9
M  V30 9 1 9 10
M  V30 10 1 10 11
M  V30 11 1 11 12
M  V30 12 1 12 13
M  V30 13 1 13 14
M  V30 14 2 14 15
M  V30 15 1 15 16
M  V30 16 2 16 17
M  V30 17 1 17 18
M  V30 18 1 17 19
M  V30 19 2 19 20
M  V30 20 1 5 21
M  V30 21 2 21 22
M  V30 22 1 22 2
M  V30 23 1 20 14
M  V30 24 1 1 23
M  V30 25 1 1 24
M  V30 26 1 3 25
M  V30 27 1 4 26
M  V30 28 1 7 27
M  V30 29 1 7 28
M  V30 30 1 8 29
M  V30 31 1 8 30
M  V30 32 1 9 31
M  V30 33 1 9 32
M  V30 34 1 10 33
M  V30 35 1 10 34
M  V30 36 1 11 35
M  V30 37 1 11 36
M  V30 38 1 12 37
M  V30 39 1 12 38
M  V30 40 1 15 39
M  V30 41 1 16 40
M  V30 42 1 18 41
M  V30 43 1 18 42
M  V30 44 1 19 43
M  V30 45 1 20 44
M  V30 46 1 21 45
M  V30 47 1 22 46
M  V30 END BOND
M  V30 END CTAB
M  END
