
     RDKit          3D

  0  0  0  0  0  0  0  0  0  0999 V3000
M  V30 BEGIN CTAB
M  V30 COUNTS 21 22 0 0 0
M  V30 BEGIN ATOM
M  V30 1 N -3.11671 0.155054 -0.913951 0
M  V30 2 C -2.07914 0.125761 0.0593494 0
M  V30 3 C -2.35448 0.258131 1.4127 0
M  V30 4 C -1.31975 0.225232 2.33576 0
M  V30 5 N -0.0818355 0.0660989 1.89076 0
M  V30 6 C 0.263095 -0.0686881 0.59685 0
M  V30 7 C -0.762316 -0.0373446 -0.33415 0
M  V30 8 N -0.43371 -0.177113 -1.71384 0
M  V30 9 N 1.63296 -0.236139 0.216222 0
M  V30 10 N 2.36068 -1.33823 0.383642 0
M  V30 11 C 3.59768 -1.12654 -0.09246 0
M  V30 12 C 3.59879 0.171382 -0.566332 0
M  V30 13 N 2.36319 0.681851 -0.354145 0
M  V30 14 H -3.51784 1.0799 -1.15246 0
M  V30 15 H -3.40668 -0.758975 -1.32504 0
M  V30 16 H -3.38418 0.38438 1.7037 0
M  V30 17 H -1.57821 0.332721 3.38935 0
M  V30 18 H -0.404061 -1.15185 -2.08845 0
M  V30 19 H -0.235567 0.671576 -2.30323 0
M  V30 20 H 4.44785 -1.81511 -0.115392 0
M  V30 21 H 4.41023 0.722109 -1.0289 0
M  V30 END ATOM
M  V30 BEGIN BOND
M  V30 1 1 1 2
M  V30 2 2 2 3
M  V30 3 1 3 4
M  V30 4 2 4 5
M  V30 5 1 5 6
M  V30 6 2 6 7
M  V30 7 1 7 8
M  V30 8 1 6 9
M  V30 9 1 9 10
M  V30 10 2 10 11
M  V30 11 1 11 12
M  V30 12 2 12 13
M  V30 13 1 7 2
M  V30 14 1 13 9
M  V30 15 1 1 14
M  V30 16 1 1 15
M  V30 17 1 3 16
M  V30 18 1 4 17
M  V30 19 1 8 18
M  V30 20 1 8 19
M  V30 21 1 11 20
M  V30 22 1 12 21
M  V30 END BOND
M  V30 END CTAB
M  END
