
     RDKit          3D

  0  0  0  0  0  0  0  0  0  0999 V3000
M  V30 BEGIN CTAB
M  V30 COUNTS 49 51 0 0 0
M  V30 BEGIN ATOM
M  V30 1 C 2.81183 -1.16528 1.48228 0
M  V30 2 C 3.43056 -1.22454 0.088594 0
M  V30 3 C 2.95051 -2.47526 -0.641113 0
M  V30 4 N 4.83372 -1.34442 0.268162 0
M  V30 5 C 5.67693 -0.518675 -0.144199 0
M  V30 6 N 7.06721 -0.734522 0.0899585 0
M  V30 7 N 5.31073 0.666378 -0.859584 0
M  V30 8 C 4.07911 0.865147 -1.07131 0
M  V30 9 N 3.65194 2.04087 -1.78608 0
M  V30 10 N 3.0846 -0.0344221 -0.627919 0
M  V30 11 C 1.68753 0.27013 -0.913576 0
M  V30 12 C 0.911694 1.00621 -0.0475039 0
M  V30 13 C -0.420624 1.2777 -0.354174 0
M  V30 14 C -1.20274 2.09504 0.632087 0
M  V30 15 O -2.56785 1.96519 0.505853 0
M  V30 16 C -3.3609 0.86309 0.632706 0
M  V30 17 C -4.738 1.01278 0.441118 0
M  V30 18 C -5.62857 -0.0308016 0.545643 0
M  V30 19 C -7.09534 0.223549 0.322586 0
M  V30 20 O -7.33955 1.54225 0.0299997 0
M  V30 21 C -5.16712 -1.29207 0.852432 0
M  V30 22 C -3.79492 -1.46963 1.04916 0
M  V30 23 C -2.92448 -0.407043 0.938598 0
M  V30 24 C -0.97167 0.809541 -1.53013 0
M  V30 25 C -0.215087 0.0821135 -2.39206 0
M  V30 26 C 1.11084 -0.18388 -2.07927 0
M  V30 27 H 1.7183 -1.32818 1.44421 0
M  V30 28 H 3.28984 -1.88081 2.174 0
M  V30 29 H 3.00995 -0.143718 1.86703 0
M  V30 30 H 3.59414 -3.31496 -0.274771 0
M  V30 31 H 1.91668 -2.73315 -0.397694 0
M  V30 32 H 3.16794 -2.36427 -1.71194 0
M  V30 33 H 7.43958 -0.806921 1.05399 0
M  V30 34 H 7.75216 -0.826399 -0.688466 0
M  V30 35 H 3.36339 2.90563 -1.28146 0
M  V30 36 H 3.61471 2.07334 -2.82835 0
M  V30 37 H 1.35435 1.37327 0.880817 0
M  V30 38 H -0.846215 1.91276 1.67298 0
M  V30 39 H -0.942021 3.17238 0.430685 0
M  V30 40 H -5.12158 1.99296 0.199772 0
M  V30 41 H -7.41157 -0.396501 -0.537333 0
M  V30 42 H -7.65373 -0.120659 1.21278 0
M  V30 43 H -7.22021 1.78911 -0.901639 0
M  V30 44 H -5.87109 -2.10845 0.933241 0
M  V30 45 H -3.47426 -2.47791 1.28876 0
M  V30 46 H -1.87235 -0.587392 1.10413 0
M  V30 47 H -2.01075 1.06657 -1.68834 0
M  V30 48 H -0.672291 -0.278352 -3.31717 0
M  V30 49 H 1.69467 -0.757816 -2.76718 0
M  V30 END ATOM
M  V30 BEGIN BOND
M  V30 1 1 1 2
M  V30 2 1 2 3
M  V30 3 1 2 4
M  V30 4 2 4 5
M  V30 5 1 5 6
M  V30 6 1 5 7
M  V30 7 2 7 8
M  V30 8 1 8 9
M  V30 9 1 8 10
M  V30 10 1 10 11
M  V30 11 2 11 12
M  V30 12 1 12 13
M  V30 13 1 13 14
M  V30 14 1 14 15
M  V30 15 1 15 16
M  V30 16 2 16 17
M  V30 17 1 17 18
M  V30 18 1 18 19
M  V30 19 1 19 20
M  V30 20 2 18 21
M  V30 21 1 21 22
M  V30 22 2 22 23
M  V30 23 2 13 24
M  V30 24 1 24 25
M  V30 25 2 25 26
M  V30 26 1 10 2
M  V30 27 1 26 11
M  V30 28 1 23 16
M  V30 29 1 1 27
M  V30 30 1 1 28
M  V30 31 1 1 29
M  V30 32 1 3 30
M  V30 33 1 3 31
M  V30 34 1 3 32
M  V30 35 1 6 33
M  V30 36 1 6 34
M  V30 37 1 9 35
M  V30 38 1 9 36
M  V30 39 1 12 37
M  V30 40 1 14 38
M  V30 41 1 14 39
M  V30 42 1 17 40
M  V30 43 1 19 41
M  V30 44 1 19 42
M  V30 45 1 20 43
M  V30 46 1 21 44
M  V30 47 1 22 45
M  V30 48 1 23 46
M  V30 49 1 24 47
M  V30 50 1 25 48
M  V30 51 1 26 49
M  V30 END BOND
M  V30 END CTAB
M  END
