
     RDKit          3D

  0  0  0  0  0  0  0  0  0  0999 V3000
M  V30 BEGIN CTAB
M  V30 COUNTS 31 32 0 0 0
M  V30 BEGIN ATOM
M  V30 1 N 3.78516 0.92314 -0.904003 0
M  V30 2 S 3.13804 -0.248579 0.133076 0
M  V30 3 O 3.79961 -1.57807 -0.208846 0
M  V30 4 O 3.47395 0.0080499 1.57699 0
M  V30 5 C 1.42346 -0.449294 -0.13915 0 CFG=1
M  V30 6 C 0.843836 -1.56403 0.748608 0
M  V30 7 C -0.465751 -1.98046 0.14621 0
M  V30 8 N -1.24776 -0.815082 -0.230973 0
M  V30 9 C -0.782834 0.490703 0.10151 0
M  V30 10 C 0.596693 0.730633 0.151214 0
M  V30 11 C 0.992795 1.98267 0.465698 0
M  V30 12 C 0.106039 3.00336 0.732329 0
M  V30 13 C -1.25242 2.78019 0.687423 0
M  V30 14 C -1.67735 1.50096 0.366226 0
M  V30 15 S -2.72641 -1.02153 -1.06221 0
M  V30 16 O -3.28497 0.224479 -1.65082 0
M  V30 17 O -2.46898 -1.93375 -2.27598 0
M  V30 18 N -3.84718 -1.90577 -0.0962078 0
M  V30 19 H 4.783 0.766782 -1.05953 0
M  V30 20 H 3.30161 1.07514 -1.77564 0
M  V30 21 H 1.25373 -0.760793 -1.19031 0
M  V30 22 H 0.628324 -1.11972 1.75865 0
M  V30 23 H 1.54215 -2.39939 0.831019 0
M  V30 24 H -0.245787 -2.55303 -0.782912 0
M  V30 25 H -1.06461 -2.6138 0.839166 0
M  V30 26 H 2.0376 2.19314 0.511161 0
M  V30 27 H 0.455299 3.9904 0.979761 0
M  V30 28 H -1.98421 3.54125 0.887043 0
M  V30 29 H -2.75042 1.30601 0.334918 0
M  V30 30 H -4.82049 -1.56005 -0.200964 0
M  V30 31 H -3.54209 -2.01355 0.88392 0
M  V30 END ATOM
M  V30 BEGIN BOND
M  V30 1 1 1 2
M  V30 2 2 2 3
M  V30 3 2 2 4
M  V30 4 1 2 5
M  V30 5 1 5 6
M  V30 6 1 6 7
M  V30 7 1 7 8
M  V30 8 1 8 9
M  V30 9 2 9 10
M  V30 10 1 10 11
M  V30 11 2 11 12
M  V30 12 1 12 13
M  V30 13 2 13 14
M  V30 14 1 8 15
M  V30 15 2 15 16
M  V30 16 2 15 17
M  V30 17 1 15 18
M  V30 18 1 10 5
M  V30 19 1 14 9
M  V30 20 1 1 19
M  V30 21 1 1 20
M  V30 22 1 5 21 CFG=3
M  V30 23 1 6 22
M  V30 24 1 6 23
M  V30 25 1 7 24
M  V30 26 1 7 25
M  V30 27 1 11 26
M  V30 28 1 12 27
M  V30 29 1 13 28
M  V30 30 1 14 29
M  V30 31 1 18 30
M  V30 32 1 18 31
M  V30 END BOND
M  V30 END CTAB
M  END
