
     RDKit          3D

  0  0  0  0  0  0  0  0  0  0999 V3000
M  V30 BEGIN CTAB
M  V30 COUNTS 50 49 0 0 0
M  V30 BEGIN ATOM
M  V30 1 N -8.55919 1.47937 0.0760941 0
M  V30 2 N -7.72185 0.700897 -0.708354 0
M  V30 3 C -7.36126 -0.623927 -0.385157 0
M  V30 4 O -7.83052 -1.12246 0.674465 0
M  V30 5 C -6.47017 -1.44844 -1.21647 0
M  V30 6 F -6.36404 -2.74327 -0.734836 0
M  V30 7 F -7.03205 -1.54455 -2.48527 0
M  V30 8 C -5.08357 -0.888313 -1.39478 0
M  V30 9 F -5.06977 0.330267 -1.98809 0
M  V30 10 F -4.41548 -1.77051 -2.24488 0
M  V30 11 C -4.3688 -0.836158 -0.0467933 0
M  V30 12 F -5.13666 -0.0133153 0.748145 0
M  V30 13 F -4.38503 -2.09554 0.475482 0
M  V30 14 C -2.94508 -0.309766 -0.233052 0
M  V30 15 F -2.35193 -1.21657 -1.10639 0
M  V30 16 F -3.0344 0.894498 -0.882368 0
M  V30 17 C -2.2936 -0.249707 1.10833 0
M  V30 18 F -3.14872 0.62306 1.85663 0
M  V30 19 F -2.43255 -1.46244 1.73527 0
M  V30 20 C -0.942759 0.336092 1.2123 0
M  V30 21 F -0.592323 0.257903 2.5795 0
M  V30 22 F -0.95722 1.7297 0.992565 0
M  V30 23 C 0.185606 -0.264671 0.465636 0
M  V30 24 F 0.35474 -1.60327 0.839261 0
M  V30 25 F 0.184802 -0.167484 -0.877869 0
M  V30 26 C 1.52252 0.383698 0.91102 0
M  V30 27 F 1.75945 0.196982 2.24003 0
M  V30 28 F 1.4292 1.72658 0.577537 0
M  V30 29 C 2.64014 -0.219914 0.116159 0
M  V30 30 F 2.4869 -0.0112979 -1.24846 0
M  V30 31 F 2.657 -1.58284 0.341132 0
M  V30 32 C 3.95342 0.401726 0.574447 0
M  V30 33 F 4.13774 0.146698 1.89785 0
M  V30 34 F 3.83831 1.76643 0.399714 0
M  V30 35 C 5.10436 -0.0568724 -0.292809 0
M  V30 36 F 5.28863 -1.40523 -0.280044 0
M  V30 37 F 4.85874 0.336317 -1.59015 0
M  V30 38 C 6.36382 0.608703 0.206051 0
M  V30 39 F 6.53027 0.203047 1.53539 0
M  V30 40 F 6.23531 1.98621 0.134491 0
M  V30 41 C 7.51238 0.161474 -0.611767 0
M  V30 42 O 7.3442 -0.639186 -1.5373 0
M  V30 43 N 8.80203 0.655252 -0.328112 0
M  V30 44 N 9.88352 0.235763 -1.0962 0
M  V30 45 H -8.59504 1.11688 1.04798 0
M  V30 46 H -8.37215 2.48545 -0.00765696 0
M  V30 47 H -7.35061 1.1245 -1.57803 0
M  V30 48 H 8.93585 1.32378 0.446252 0
M  V30 49 H 10.0275 0.846548 -1.93568 0
M  V30 50 H 10.7783 0.217921 -0.532705 0
M  V30 END ATOM
M  V30 BEGIN BOND
M  V30 1 1 1 2
M  V30 2 1 2 3
M  V30 3 2 3 4
M  V30 4 1 3 5
M  V30 5 1 5 6
M  V30 6 1 5 7
M  V30 7 1 5 8
M  V30 8 1 8 9
M  V30 9 1 8 10
M  V30 10 1 8 11
M  V30 11 1 11 12
M  V30 12 1 11 13
M  V30 13 1 11 14
M  V30 14 1 14 15
M  V30 15 1 14 16
M  V30 16 1 14 17
M  V30 17 1 17 18
M  V30 18 1 17 19
M  V30 19 1 17 20
M  V30 20 1 20 21
M  V30 21 1 20 22
M  V30 22 1 20 23
M  V30 23 1 23 24
M  V30 24 1 23 25
M  V30 25 1 23 26
M  V30 26 1 26 27
M  V30 27 1 26 28
M  V30 28 1 26 29
M  V30 29 1 29 30
M  V30 30 1 29 31
M  V30 31 1 29 32
M  V30 32 1 32 33
M  V30 33 1 32 34
M  V30 34 1 32 35
M  V30 35 1 35 36
M  V30 36 1 35 37
M  V30 37 1 35 38
M  V30 38 1 38 39
M  V30 39 1 38 40
M  V30 40 1 38 41
M  V30 41 2 41 42
M  V30 42 1 41 43
M  V30 43 1 43 44
M  V30 44 1 1 45
M  V30 45 1 1 46
M  V30 46 1 2 47
M  V30 47 1 43 48
M  V30 48 1 44 49
M  V30 49 1 44 50
M  V30 END BOND
M  V30 END CTAB
M  END
