
     RDKit          3D

  0  0  0  0  0  0  0  0  0  0999 V3000
M  V30 BEGIN CTAB
M  V30 COUNTS 49 51 0 0 0
M  V30 BEGIN ATOM
M  V30 1 O 1.15579 1.56569 -3.05635 0
M  V30 2 C 1.49468 0.529071 -2.52839 0
M  V30 3 N 2.60901 0.308678 -1.76877 0
M  V30 4 C 3.71383 0.107124 -1.01982 0
M  V30 5 C 4.99157 0.53861 -1.53714 0
M  V30 6 C 6.14134 0.364596 -0.878896 0
M  V30 7 C 6.19115 -0.248363 0.364428 0
M  V30 8 C 4.97155 -0.666858 0.864722 0
M  V30 9 C 3.76058 -0.513876 0.231595 0
M  V30 10 S 7.73816 -0.548845 1.13505 0
M  V30 11 O 7.52485 -0.0916919 2.56613 0
M  V30 12 O 8.18637 -1.94955 1.07465 0
M  V30 13 N 8.84543 0.584814 0.436265 0
M  V30 14 C 0.544882 -0.660493 -2.798 0
M  V30 15 S 0.398186 -1.77275 -1.46053 0
M  V30 16 C -0.847517 -1.4681 -0.262704 0
M  V30 17 N -0.912593 -1.89927 1.03225 0
M  V30 18 N -2.05627 -1.6159 1.53984 0
M  V30 19 C -2.8318 -1.00453 0.662298 0
M  V30 20 N -2.07517 -0.903918 -0.453551 0
M  V30 21 N -2.42883 -0.283985 -1.66188 0
M  V30 22 C -4.24216 -0.626969 0.799863 0
M  V30 23 C -4.51626 0.682164 0.211295 0
M  V30 24 C -5.89062 1.24444 0.710609 0
M  V30 25 C -6.74185 0.0519379 1.02368 0
M  V30 26 C -6.22413 -0.571196 2.29491 0
M  V30 27 C -4.70778 -0.733877 2.23904 0
M  V30 28 H 2.60498 1.60961 -1.35485 0
M  V30 29 H 4.9242 1.04727 -2.48594 0
M  V30 30 H 7.09334 0.680298 -1.29863 0
M  V30 31 H 5.01242 -1.16376 1.83608 0
M  V30 32 H 2.83631 -0.858141 0.678798 0
M  V30 33 H 9.78279 0.535048 0.902625 0
M  V30 34 H 8.96908 0.305003 -0.590414 0
M  V30 35 H -0.421597 -0.227331 -3.11651 0
M  V30 36 H 1.00109 -1.17331 -3.67424 0
M  V30 37 H -2.74677 -0.896512 -2.43719 0
M  V30 38 H -2.36477 0.726562 -1.74215 0
M  V30 39 H -4.80861 -1.4064 0.205795 0
M  V30 40 H -3.73922 1.42677 0.366395 0
M  V30 41 H -4.68111 0.572218 -0.89374 0
M  V30 42 H -6.34819 1.8056 -0.150241 0
M  V30 43 H -5.7257 1.89997 1.56391 0
M  V30 44 H -7.81733 0.286422 1.15394 0
M  V30 45 H -6.62373 -0.699425 0.205438 0
M  V30 46 H -6.71451 -1.48421 2.52043 0
M  V30 47 H -6.42231 0.155082 3.11745 0
M  V30 48 H -4.44856 -1.76314 2.57849 0
M  V30 49 H -4.15422 -0.0221461 2.85399 0
M  V30 END ATOM
M  V30 BEGIN BOND
M  V30 1 2 1 2
M  V30 2 1 2 3
M  V30 3 1 3 4
M  V30 4 2 4 5
M  V30 5 1 5 6
M  V30 6 2 6 7
M  V30 7 1 7 8
M  V30 8 2 8 9
M  V30 9 1 7 10
M  V30 10 2 10 11
M  V30 11 2 10 12
M  V30 12 1 10 13
M  V30 13 1 2 14
M  V30 14 1 14 15
M  V30 15 1 15 16
M  V30 16 2 16 17
M  V30 17 1 17 18
M  V30 18 2 18 19
M  V30 19 1 19 20
M  V30 20 1 20 21
M  V30 21 1 19 22
M  V30 22 1 22 23
M  V30 23 1 23 24
M  V30 24 1 24 25
M  V30 25 1 25 26
M  V30 26 1 26 27
M  V30 27 1 9 4
M  V30 28 1 20 16
M  V30 29 1 27 22
M  V30 30 1 3 28
M  V30 31 1 5 29
M  V30 32 1 6 30
M  V30 33 1 8 31
M  V30 34 1 9 32
M  V30 35 1 13 33
M  V30 36 1 13 34
M  V30 37 1 14 35
M  V30 38 1 14 36
M  V30 39 1 21 37
M  V30 40 1 21 38
M  V30 41 1 22 39
M  V30 42 1 23 40
M  V30 43 1 23 41
M  V30 44 1 24 42
M  V30 45 1 24 43
M  V30 46 1 25 44
M  V30 47 1 25 45
M  V30 48 1 26 46
M  V30 49 1 26 47
M  V30 50 1 27 48
M  V30 51 1 27 49
M  V30 END BOND
M  V30 END CTAB
M  END
