
     RDKit          3D

  0  0  0  0  0  0  0  0  0  0999 V3000
M  V30 BEGIN CTAB
M  V30 COUNTS 24 25 0 0 0
M  V30 BEGIN ATOM
M  V30 1 N 4.69095 0.0786814 -0.0294432 0
M  V30 2 C 3.26983 0.120529 0.0078003 0
M  V30 3 N 2.62785 1.24049 0.381749 0
M  V30 4 C 1.28585 1.28167 0.422841 0
M  V30 5 C 0.512235 0.198599 0.0897457 0
M  V30 6 C 1.16454 -0.949053 -0.293394 0
M  V30 7 N 0.472145 -2.11433 -0.657131 0
M  V30 8 N 2.52324 -0.944894 -0.320117 0
M  V30 9 C -0.937618 0.276254 0.156195 0
M  V30 10 C -1.71218 0.239053 -0.98244 0
M  V30 11 Cl -0.966947 0.0940263 -2.58321 0
M  V30 12 C -3.08004 0.317017 -0.837789 0
M  V30 13 Cl -4.0633 0.267442 -2.27874 0
M  V30 14 C -3.68536 0.430052 0.409921 0
M  V30 15 C -2.91932 0.468006 1.55368 0
M  V30 16 Cl -3.63366 0.608966 3.14756 0
M  V30 17 C -1.55072 0.390742 1.41352 0
M  V30 18 H 5.15047 -0.791234 0.339174 0
M  V30 19 H 5.29661 0.833871 -0.388371 0
M  V30 20 H 0.808172 2.18982 0.723897 0
M  V30 21 H 0.790531 -2.61089 -1.54045 0
M  V30 22 H -0.321422 -2.54087 -0.151467 0
M  V30 23 H -4.77522 0.493665 0.526087 0
M  V30 24 H -0.94664 0.422378 2.31405 0
M  V30 END ATOM
M  V30 BEGIN BOND
M  V30 1 1 1 2
M  V30 2 2 2 3
M  V30 3 1 3 4
M  V30 4 2 4 5
M  V30 5 1 5 6
M  V30 6 1 6 7
M  V30 7 2 6 8
M  V30 8 1 5 9
M  V30 9 2 9 10
M  V30 10 1 10 11
M  V30 11 1 10 12
M  V30 12 1 12 13
M  V30 13 2 12 14
M  V30 14 1 14 15
M  V30 15 1 15 16
M  V30 16 2 15 17
M  V30 17 1 8 2
M  V30 18 1 17 9
M  V30 19 1 1 18
M  V30 20 1 1 19
M  V30 21 1 4 20
M  V30 22 1 7 21
M  V30 23 1 7 22
M  V30 24 1 14 23
M  V30 25 1 17 24
M  V30 END BOND
M  V30 END CTAB
M  END
