
     RDKit          3D

  0  0  0  0  0  0  0  0  0  0999 V3000
M  V30 BEGIN CTAB
M  V30 COUNTS 30 30 0 0 0
M  V30 BEGIN ATOM
M  V30 1 N 4.22883 -1.12693 0.800039 0
M  V30 2 C 4.24535 0.275754 0.756003 0
M  V30 3 N 5.49243 0.973492 0.654026 0
M  V30 4 N 3.15767 0.959075 0.805375 0
M  V30 5 C 1.92413 0.267712 0.906294 0
M  V30 6 O 1.85717 -0.746644 1.63976 0
M  V30 7 N 0.815747 0.749095 0.175255 0
M  V30 8 C -0.440307 0.0394297 0.282265 0 CFG=2
M  V30 9 O -0.833871 -0.398232 -0.989255 0
M  V30 10 C -2.16286 -0.777787 -0.761945 0 CFG=2
M  V30 11 C -2.7759 -1.06259 -2.10877 0
M  V30 12 O -4.09586 -1.45032 -2.02583 0
M  V30 13 C -2.74298 0.471134 -0.122775 0 CFG=1
M  V30 14 O -3.80799 0.143123 0.69629 0
M  V30 15 C -1.55661 0.96775 0.683055 0 CFG=1
M  V30 16 O -1.79874 0.770065 2.04376 0
M  V30 17 H 3.95805 -1.68256 -0.0181845 0
M  V30 18 H 4.49438 -1.61512 1.67333 0
M  V30 19 H 5.49783 1.92115 0.217965 0
M  V30 20 H 6.37723 0.555583 1.00268 0
M  V30 21 H 0.875194 1.58762 -0.429724 0
M  V30 22 H -0.372742 -0.828648 0.952086 0
M  V30 23 H -2.19952 -1.64125 -0.0768513 0
M  V30 24 H -2.19368 -1.87634 -2.57574 0
M  V30 25 H -2.6216 -0.164946 -2.7416 0
M  V30 26 H -4.25278 -1.98038 -1.21288 0
M  V30 27 H -3.01909 1.1898 -0.897296 0
M  V30 28 H -4.33955 0.964941 0.864879 0
M  V30 29 H -1.31785 2.02538 0.45894 0
M  V30 30 H -2.39208 1.49062 2.38126 0
M  V30 END ATOM
M  V30 BEGIN BOND
M  V30 1 1 1 2
M  V30 2 1 2 3
M  V30 3 2 2 4
M  V30 4 1 4 5
M  V30 5 2 5 6
M  V30 6 1 5 7
M  V30 7 1 7 8
M  V30 8 1 8 9
M  V30 9 1 9 10
M  V30 10 1 10 11
M  V30 11 1 11 12
M  V30 12 1 10 13
M  V30 13 1 13 14
M  V30 14 1 13 15
M  V30 15 1 15 16
M  V30 16 1 15 8
M  V30 17 1 1 17
M  V30 18 1 1 18
M  V30 19 1 3 19
M  V30 20 1 3 20
M  V30 21 1 7 21
M  V30 22 1 8 22 CFG=1
M  V30 23 1 10 23 CFG=1
M  V30 24 1 11 24
M  V30 25 1 11 25
M  V30 26 1 12 26
M  V30 27 1 13 27 CFG=3
M  V30 28 1 14 28
M  V30 29 1 15 29 CFG=1
M  V30 30 1 16 30
M  V30 END BOND
M  V30 END CTAB
M  END
