
     RDKit          3D

  0  0  0  0  0  0  0  0  0  0999 V3000
M  V30 BEGIN CTAB
M  V30 COUNTS 44 47 0 0 0
M  V30 BEGIN ATOM
M  V30 1 N -5.24361 -1.13963 3.17167 0
M  V30 2 C -4.30843 -0.972616 2.55002 0
M  V30 3 C -2.98698 -0.747422 1.79988 0
M  V30 4 C -1.99795 -1.34215 2.38436 0
M  V30 5 N -2.19741 -2.17158 3.58944 0
M  V30 6 O -0.624426 -1.21643 2.02085 0
M  V30 7 C -0.50068 -0.300515 0.995077 0
M  V30 8 C -1.57545 0.41016 0.409258 0
M  V30 9 C -2.86498 -0.291511 0.44006 0
M  V30 10 C -3.82495 -0.182696 -0.587181 0
M  V30 11 C -5.15012 -0.134281 -0.295833 0
M  V30 12 C -6.13106 0.120193 -1.38761 0
M  V30 13 C -5.66086 0.250723 -2.59422 0
M  V30 14 N -4.31678 0.159796 -2.93071 0
M  V30 15 C -3.39067 -0.0392382 -1.87426 0
M  V30 16 C -1.2257 1.41125 -0.534424 0
M  V30 17 N -2.18762 2.39129 -0.957332 0
M  V30 18 N 0.0682353 1.57157 -0.81627 0
M  V30 19 C 1.13104 0.891758 -0.308305 0
M  V30 20 N 0.745579 -0.023959 0.608065 0
M  V30 21 S 2.6649 1.25162 -0.608075 0
M  V30 22 C 4.2022 1.55212 -0.965563 0
M  V30 23 C 5.22188 0.443696 -0.630568 0
M  V30 24 C 5.27358 -0.753748 -1.14781 0
M  V30 25 C 6.23591 -1.63877 -0.792695 0
M  V30 26 C 7.18657 -1.30385 0.0937484 0
M  V30 27 C 7.19955 0.0111138 0.663612 0
M  V30 28 C 6.19755 0.86723 0.290713 0
M  V30 29 Cl 6.07249 2.44833 1.06594 0
M  V30 30 H -2.19528 -1.5004 4.47702 0
M  V30 31 H -2.38794 -3.14781 3.53229 0
M  V30 32 H -2.44113 -1.41449 -0.0273014 0
M  V30 33 H -5.61619 -0.307397 0.620487 0
M  V30 34 H -7.19133 0.155329 -1.14983 0
M  V30 35 H -6.29349 0.459453 -3.46379 0
M  V30 36 H -2.3936 -0.111881 -2.26476 0
M  V30 37 H -2.37655 2.79461 -1.83695 0
M  V30 38 H -2.75858 2.76042 -0.0717226 0
M  V30 39 H 4.39279 1.68511 -2.18918 0
M  V30 40 H 4.66568 2.52807 -0.662378 0
M  V30 41 H 4.51328 -1.06412 -1.92783 0
M  V30 42 H 6.18199 -2.61536 -1.32197 0
M  V30 43 H 7.93628 -1.97355 0.412611 0
M  V30 44 H 7.95227 0.229584 1.39567 0
M  V30 END ATOM
M  V30 BEGIN BOND
M  V30 1 3 1 2
M  V30 2 1 2 3
M  V30 3 2 3 4
M  V30 4 1 4 5
M  V30 5 1 4 6
M  V30 6 1 6 7
M  V30 7 2 7 8
M  V30 8 1 8 9
M  V30 9 1 9 10
M  V30 10 2 10 11
M  V30 11 1 11 12
M  V30 12 2 12 13
M  V30 13 1 13 14
M  V30 14 2 14 15
M  V30 15 1 8 16
M  V30 16 1 16 17
M  V30 17 2 16 18
M  V30 18 1 18 19
M  V30 19 2 19 20
M  V30 20 1 19 21
M  V30 21 1 21 22
M  V30 22 1 22 23
M  V30 23 2 23 24
M  V30 24 1 24 25
M  V30 25 2 25 26
M  V30 26 1 26 27
M  V30 27 2 27 28
M  V30 28 1 28 29
M  V30 29 1 9 3
M  V30 30 1 15 10
M  V30 31 1 28 23
M  V30 32 1 20 7
M  V30 33 1 5 30
M  V30 34 1 5 31
M  V30 35 1 9 32
M  V30 36 1 11 33
M  V30 37 1 12 34
M  V30 38 1 13 35
M  V30 39 1 15 36
M  V30 40 1 17 37
M  V30 41 1 17 38
M  V30 42 1 22 39
M  V30 43 1 22 40
M  V30 44 1 24 41
M  V30 45 1 25 42
M  V30 46 1 26 43
M  V30 47 1 27 44
M  V30 END BOND
M  V30 END CTAB
M  END
