
     RDKit          3D

  0  0  0  0  0  0  0  0  0  0999 V3000
M  V30 BEGIN CTAB
M  V30 COUNTS 28 28 0 0 0
M  V30 BEGIN ATOM
M  V30 1 N -3.28962 -2.16965 0.223236 0
M  V30 2 C -2.77711 -0.880409 -0.133414 0
M  V30 3 C -1.36229 -0.810486 0.19866 0
M  V30 4 C -0.620106 -1.83254 0.774992 0
M  V30 5 N 0.619983 -1.38247 0.919145 0
M  V30 6 N 0.682604 -0.120075 0.455963 0
M  V30 7 C -0.492165 0.268181 0.0103082 0
M  V30 8 S -0.921354 1.784 -0.678223 0
M  V30 9 O -2.39567 2.10324 -0.439758 0
M  V30 10 O -0.187302 2.9603 -0.0946795 0
M  V30 11 N -0.71078 1.84136 -2.38307 0
M  V30 12 C 1.90115 0.622188 0.480805 0
M  V30 13 C 2.62722 0.276748 1.79104 0
M  V30 14 C 2.78911 0.0693591 -0.622066 0
M  V30 15 H -2.64843 -2.88597 -0.187058 0
M  V30 16 H -3.17822 -2.26994 1.26909 0
M  V30 17 H -3.38306 -0.0382815 0.248299 0
M  V30 18 H -2.85941 -0.806444 -1.25845 0
M  V30 19 H -0.972889 -2.83039 1.06406 0
M  V30 20 H -1.3963 1.30065 -2.91526 0
M  V30 21 H -0.695743 2.85553 -2.66388 0
M  V30 22 H 1.83057 1.70216 0.469462 0
M  V30 23 H 2.96965 -0.768074 1.68658 0
M  V30 24 H 1.93398 0.371392 2.6397 0
M  V30 25 H 3.52007 0.926692 1.90163 0
M  V30 26 H 2.54427 -0.996556 -0.815389 0
M  V30 27 H 2.60767 0.599897 -1.58494 0
M  V30 28 H 3.86416 0.109589 -0.356782 0
M  V30 END ATOM
M  V30 BEGIN BOND
M  V30 1 1 1 2
M  V30 2 1 2 3
M  V30 3 1 3 4
M  V30 4 2 4 5
M  V30 5 1 5 6
M  V30 6 1 6 7
M  V30 7 1 7 8
M  V30 8 2 8 9
M  V30 9 2 8 10
M  V30 10 1 8 11
M  V30 11 1 6 12
M  V30 12 1 12 13
M  V30 13 1 12 14
M  V30 14 2 7 3
M  V30 15 1 1 15
M  V30 16 1 1 16
M  V30 17 1 2 17
M  V30 18 1 2 18
M  V30 19 1 4 19
M  V30 20 1 11 20
M  V30 21 1 11 21
M  V30 22 1 12 22
M  V30 23 1 13 23
M  V30 24 1 13 24
M  V30 25 1 13 25
M  V30 26 1 14 26
M  V30 27 1 14 27
M  V30 28 1 14 28
M  V30 END BOND
M  V30 END CTAB
M  END
