
     RDKit          3D

  0  0  0  0  0  0  0  0  0  0999 V3000
M  V30 BEGIN CTAB
M  V30 COUNTS 24 23 0 0 0
M  V30 BEGIN ATOM
M  V30 1 N 1.94325 -1.02949 -1.36281 0
M  V30 2 C 2.0956 -0.658566 0.037892 0
M  V30 3 C 0.784151 -0.456234 0.715126 0
M  V30 4 C -0.0707135 0.608058 0.118492 0
M  V30 5 C 0.531735 1.96109 0.116804 0
M  V30 6 O -0.0092967 2.93126 0.747597 0
M  V30 7 O 1.70399 2.24699 -0.562268 0
M  V30 8 C -1.42933 0.707463 0.761706 0
M  V30 9 C -2.22297 -0.568321 0.646058 0
M  V30 10 N -2.42925 -0.910356 -0.751262 0
M  V30 11 H 2.84398 -0.849555 -1.84619 0
M  V30 12 H 1.7673 -2.05675 -1.41647 0
M  V30 13 H 2.80285 0.163019 0.0973312 0
M  V30 14 H 2.61259 -1.54464 0.51668 0
M  V30 15 H 0.922779 -0.220398 1.78649 0
M  V30 16 H 0.199559 -1.40718 0.650822 0
M  V30 17 H -0.245385 0.324928 -0.947957 0
M  V30 18 H 1.77271 2.8842 -1.33967 0
M  V30 19 H -1.99694 1.49218 0.205089 0
M  V30 20 H -1.324 0.94916 1.83141 0
M  V30 21 H -1.81307 -1.39884 1.23769 0
M  V30 22 H -3.23801 -0.347632 1.05804 0
M  V30 23 H -3.42592 -1.12738 -0.95927 0
M  V30 24 H -1.7756 -1.69299 -0.987617 0
M  V30 END ATOM
M  V30 BEGIN BOND
M  V30 1 1 1 2
M  V30 2 1 2 3
M  V30 3 1 3 4
M  V30 4 1 4 5
M  V30 5 2 5 6
M  V30 6 1 5 7
M  V30 7 1 4 8
M  V30 8 1 8 9
M  V30 9 1 9 10
M  V30 10 1 1 11
M  V30 11 1 1 12
M  V30 12 1 2 13
M  V30 13 1 2 14
M  V30 14 1 3 15
M  V30 15 1 3 16
M  V30 16 1 4 17
M  V30 17 1 7 18
M  V30 18 1 8 19
M  V30 19 1 8 20
M  V30 20 1 9 21
M  V30 21 1 9 22
M  V30 22 1 10 23
M  V30 23 1 10 24
M  V30 END BOND
M  V30 END CTAB
M  END
