
     RDKit          3D

  0  0  0  0  0  0  0  0  0  0999 V3000
M  V30 BEGIN CTAB
M  V30 COUNTS 29 30 0 0 0
M  V30 BEGIN ATOM
M  V30 1 C -2.81533 1.12651 0.826359 0
M  V30 2 C -1.78404 0.512791 -0.0709847 0
M  V30 3 C -2.41441 0.186397 -1.40728 0
M  V30 4 C -3.59087 -0.807105 -1.29303 0
M  V30 5 C -2.31764 -1.19861 -1.94694 0
M  V30 6 O -0.608939 1.24015 -0.179092 0
M  V30 7 C 0.647435 0.838898 0.19347 0
M  V30 8 C 1.70754 1.71298 0.00569934 0
M  V30 9 C 3.00272 1.37239 0.35952 0
M  V30 10 C 3.26395 0.140772 0.912427 0
M  V30 11 C 2.20352 -0.723815 1.09621 0
M  V30 12 N 0.953928 -0.349667 0.735982 0
M  V30 13 N 2.39639 -2.02387 1.66624 0
M  V30 14 N 4.57993 -0.238846 1.28584 0
M  V30 15 H -2.44752 1.19488 1.88041 0
M  V30 16 H -3.18344 2.09066 0.476235 0
M  V30 17 H -3.68049 0.416392 0.871366 0
M  V30 18 H -1.51785 -0.486184 0.386312 0
M  V30 19 H -2.50872 0.9947 -2.15397 0
M  V30 20 H -3.81147 -1.23844 -0.313991 0
M  V30 21 H -4.49253 -0.562659 -1.88812 0
M  V30 22 H -1.65507 -1.90972 -1.38521 0
M  V30 23 H -2.34832 -1.3302 -3.03776 0
M  V30 24 H 1.52632 2.69041 -0.428806 0
M  V30 25 H 3.83784 2.0635 0.210551 0
M  V30 26 H 1.83127 -2.82063 1.33057 0
M  V30 27 H 3.09133 -2.17263 2.40603 0
M  V30 28 H 5.13446 0.391643 1.90247 0
M  V30 29 H 5.00001 -1.1107 0.968875 0
M  V30 END ATOM
M  V30 BEGIN BOND
M  V30 1 1 1 2
M  V30 2 1 2 3
M  V30 3 1 3 4
M  V30 4 1 4 5
M  V30 5 1 2 6
M  V30 6 1 6 7
M  V30 7 2 7 8
M  V30 8 1 8 9
M  V30 9 2 9 10
M  V30 10 1 10 11
M  V30 11 2 11 12
M  V30 12 1 11 13
M  V30 13 1 10 14
M  V30 14 1 5 3
M  V30 15 1 12 7
M  V30 16 1 1 15
M  V30 17 1 1 16
M  V30 18 1 1 17
M  V30 19 1 2 18
M  V30 20 1 3 19
M  V30 21 1 4 20
M  V30 22 1 4 21
M  V30 23 1 5 22
M  V30 24 1 5 23
M  V30 25 1 8 24
M  V30 26 1 9 25
M  V30 27 1 13 26
M  V30 28 1 13 27
M  V30 29 1 14 28
M  V30 30 1 14 29
M  V30 END BOND
M  V30 END CTAB
M  END
