
     RDKit          3D

  0  0  0  0  0  0  0  0  0  0999 V3000
M  V30 BEGIN CTAB
M  V30 COUNTS 23 23 0 0 0
M  V30 BEGIN ATOM
M  V30 1 N 3.87845 -0.460782 1.32314 0
M  V30 2 C 3.291 -0.31883 0.35288 0
M  V30 3 C 2.53962 -0.117976 -0.908053 0
M  V30 4 C 1.16738 0.358751 -0.581178 0
M  V30 5 C 0.786198 1.67279 -0.736566 0
M  V30 6 C -0.50536 2.02821 -0.409102 0
M  V30 7 C -1.36755 1.06363 0.060015 0
M  V30 8 C -0.999506 -0.255446 0.220537 0
M  V30 9 C 0.28717 -0.617677 -0.104002 0
M  V30 10 N 0.682382 -1.96967 0.0541512 0
M  V30 11 C -1.94095 -1.26158 0.722585 0
M  V30 12 F -2.34301 -0.845802 2.0003 0
M  V30 13 F -1.34898 -2.49512 0.902306 0
M  V30 14 F -3.09631 -1.3493 -0.0236708 0
M  V30 15 N -2.69332 1.41952 0.398227 0
M  V30 16 H 2.54174 -1.07686 -1.43178 0
M  V30 17 H 3.06067 0.665456 -1.49567 0
M  V30 18 H 1.50636 2.3877 -1.10939 0
M  V30 19 H -0.791244 3.06186 -0.535673 0
M  V30 20 H 1.12529 -2.26272 0.952977 0
M  V30 21 H 0.565384 -2.71182 -0.669353 0
M  V30 22 H -3.44581 1.22018 -0.279571 0
M  V30 23 H -2.89961 1.86548 1.2969 0
M  V30 END ATOM
M  V30 BEGIN BOND
M  V30 1 3 1 2
M  V30 2 1 2 3
M  V30 3 1 3 4
M  V30 4 2 4 5
M  V30 5 1 5 6
M  V30 6 2 6 7
M  V30 7 1 7 8
M  V30 8 2 8 9
M  V30 9 1 9 10
M  V30 10 1 8 11
M  V30 11 1 11 12
M  V30 12 1 11 13
M  V30 13 1 11 14
M  V30 14 1 7 15
M  V30 15 1 9 4
M  V30 16 1 3 16
M  V30 17 1 3 17
M  V30 18 1 5 18
M  V30 19 1 6 19
M  V30 20 1 10 20
M  V30 21 1 10 21
M  V30 22 1 15 22
M  V30 23 1 15 23
M  V30 END BOND
M  V30 END CTAB
M  END
