
     RDKit          3D

  0  0  0  0  0  0  0  0  0  0999 V3000
M  V30 BEGIN CTAB
M  V30 COUNTS 44 46 0 0 0
M  V30 BEGIN ATOM
M  V30 1 N 5.18648 1.5391 -0.517841 0
M  V30 2 C 5.15196 0.155504 -0.755738 0 CFG=2
M  V30 3 C 4.0566 -0.334012 -1.65921 0
M  V30 4 C 3.39767 -1.02057 -0.487155 0 CFG=1
M  V30 5 C 4.60613 -0.680614 0.355894 0
M  V30 6 C 2.16243 -0.361448 0.00573374 0
M  V30 7 C 1.02008 -1.12745 0.189571 0
M  V30 8 C -0.163821 -0.588816 0.643253 0
M  V30 9 N -0.17466 0.727523 0.906362 0
M  V30 10 C 0.935396 1.48879 0.731015 0
M  V30 11 N 2.08953 0.947099 0.28553 0
M  V30 12 N 0.930521 2.88543 1.0077 0
M  V30 13 N -1.32486 -1.38943 0.840413 0
M  V30 14 C -2.57555 -0.818208 1.26239 0
M  V30 15 C -3.25047 0.00489737 0.217009 0
M  V30 16 C -2.7821 0.168693 -1.04407 0
M  V30 17 C -3.4911 0.937129 -1.95069 0
M  V30 18 N -4.64188 1.51858 -1.57984 0
M  V30 19 C -5.11823 1.3605 -0.322992 0
M  V30 20 C -4.453 0.613369 0.600973 0
M  V30 21 C -4.955 0.420587 2.00281 0
M  V30 22 C -1.2187 -2.8404 0.599963 0
M  V30 23 H 4.85047 2.12273 -1.20441 0
M  V30 24 H 5.40013 1.86471 0.369235 0
M  V30 25 H 6.17876 -0.210542 -1.04815 0
M  V30 26 H 3.48963 0.51843 -2.08381 0
M  V30 27 H 4.44505 -1.00713 -2.44932 0
M  V30 28 H 3.29265 -2.10697 -0.678617 0
M  V30 29 H 4.34095 -0.125877 1.28439 0
M  V30 30 H 5.18367 -1.58548 0.602713 0
M  V30 31 H 1.03063 -2.19292 -0.0241261 0
M  V30 32 H 0.452845 3.51718 0.334832 0
M  V30 33 H 1.39113 3.25091 1.85523 0
M  V30 34 H -2.3866 -0.176034 2.14555 0
M  V30 35 H -3.29468 -1.59572 1.60576 0
M  V30 36 H -1.84389 -0.320276 -1.35243 0
M  V30 37 H -3.08225 1.04911 -2.96346 0
M  V30 38 H -6.04273 1.82818 -0.0275734 0
M  V30 39 H -5.98769 0.826404 2.0119 0
M  V30 40 H -5.0173 -0.640686 2.28202 0
M  V30 41 H -4.3577 1.01809 2.7296 0
M  V30 42 H -0.949631 -3.06033 -0.440383 0
M  V30 43 H -0.366537 -3.21608 1.2292 0
M  V30 44 H -2.11434 -3.36398 0.97029 0
M  V30 END ATOM
M  V30 BEGIN BOND
M  V30 1 1 1 2
M  V30 2 1 2 3
M  V30 3 1 3 4
M  V30 4 1 4 5
M  V30 5 1 4 6
M  V30 6 2 6 7
M  V30 7 1 7 8
M  V30 8 2 8 9
M  V30 9 1 9 10
M  V30 10 2 10 11
M  V30 11 1 10 12
M  V30 12 1 8 13
M  V30 13 1 13 14
M  V30 14 1 14 15
M  V30 15 2 15 16
M  V30 16 1 16 17
M  V30 17 2 17 18
M  V30 18 1 18 19
M  V30 19 2 19 20
M  V30 20 1 20 21
M  V30 21 1 13 22
M  V30 22 1 5 2
M  V30 23 1 11 6
M  V30 24 1 20 15
M  V30 25 1 1 23
M  V30 26 1 1 24
M  V30 27 1 2 25 CFG=3
M  V30 28 1 3 26
M  V30 29 1 3 27
M  V30 30 1 4 28 CFG=3
M  V30 31 1 5 29
M  V30 32 1 5 30
M  V30 33 1 7 31
M  V30 34 1 12 32
M  V30 35 1 12 33
M  V30 36 1 14 34
M  V30 37 1 14 35
M  V30 38 1 16 36
M  V30 39 1 17 37
M  V30 40 1 19 38
M  V30 41 1 21 39
M  V30 42 1 21 40
M  V30 43 1 21 41
M  V30 44 1 22 42
M  V30 45 1 22 43
M  V30 46 1 22 44
M  V30 END BOND
M  V30 END CTAB
M  END
