
     RDKit          3D

  0  0  0  0  0  0  0  0  0  0999 V3000
M  V30 BEGIN CTAB
M  V30 COUNTS 19 19 0 0 0
M  V30 BEGIN ATOM
M  V30 1 C -1.36585 -1.93984 -0.0867756 0
M  V30 2 C -0.490277 -0.719128 -0.0370243 0
M  V30 3 C 0.881654 -0.831848 -0.0345007 0
M  V30 4 C 1.73182 0.260842 0.0103647 0
M  V30 5 N 3.1337 0.0962729 0.0111282 0
M  V30 6 C 1.15004 1.52398 0.0545653 0
M  V30 7 C -0.224973 1.65187 0.0525941 0
M  V30 8 Cl -0.931845 3.26294 0.109094 0
M  V30 9 C -1.06382 0.546711 0.00731651 0
M  V30 10 N -2.47188 0.718973 0.00686014 0
M  V30 11 H -1.70501 -2.15444 -1.11555 0
M  V30 12 H -2.26152 -1.81284 0.562779 0
M  V30 13 H -0.795813 -2.8184 0.315535 0
M  V30 14 H 1.30174 -1.82087 -0.0693051 0
M  V30 15 H 3.60596 -0.096001 0.909038 0
M  V30 16 H 3.69806 0.161244 -0.849417 0
M  V30 17 H 1.76553 2.41322 0.0907277 0
M  V30 18 H -2.95667 0.690896 0.925468 0
M  V30 19 H -3.00084 0.866401 -0.862901 0
M  V30 END ATOM
M  V30 BEGIN BOND
M  V30 1 1 1 2
M  V30 2 2 2 3
M  V30 3 1 3 4
M  V30 4 1 4 5
M  V30 5 2 4 6
M  V30 6 1 6 7
M  V30 7 1 7 8
M  V30 8 2 7 9
M  V30 9 1 9 10
M  V30 10 1 9 2
M  V30 11 1 1 11
M  V30 12 1 1 12
M  V30 13 1 1 13
M  V30 14 1 3 14
M  V30 15 1 5 15
M  V30 16 1 5 16
M  V30 17 1 6 17
M  V30 18 1 10 18
M  V30 19 1 10 19
M  V30 END BOND
M  V30 END CTAB
M  END
