
     RDKit          3D

  0  0  0  0  0  0  0  0  0  0999 V3000
M  V30 BEGIN CTAB
M  V30 COUNTS 24 25 0 0 0
M  V30 BEGIN ATOM
M  V30 1 C -3.11465 1.16821 -0.137736 0
M  V30 2 C -2.45512 -0.0444207 0.406257 0
M  V30 3 C -1.02961 -0.157473 0.163008 0
M  V30 4 C -0.57206 -0.526583 -1.07595 0
M  V30 5 N -1.45895 -0.816073 -2.15438 0
M  V30 6 N 0.77095 -0.622494 -1.28537 0
M  V30 7 C 1.65037 -0.365924 -0.313453 0
M  V30 8 N 1.23057 -0.00299047 0.907608 0
M  V30 9 C -0.102786 0.105775 1.16323 0
M  V30 10 O -0.575454 0.437699 2.27186 0
M  V30 11 N 2.26378 0.200893 1.70229 0
M  V30 12 C 3.37989 -0.0250387 1.01642 0
M  V30 13 N 3.0082 -0.375769 -0.229647 0
M  V30 14 N 4.7001 0.0868118 1.51704 0
M  V30 15 H -2.57911 1.63208 -1.0003 0
M  V30 16 H -4.11917 0.887404 -0.513968 0
M  V30 17 H -3.30638 1.91475 0.673705 0
M  V30 18 H -2.95153 -0.949631 -0.0462239 0
M  V30 19 H -2.68999 -0.0814301 1.51299 0
M  V30 20 H -2.01741 -1.68924 -2.22272 0
M  V30 21 H -1.57195 -0.126977 -2.93364 0
M  V30 22 H 1.11932 -0.900394 -2.21921 0
M  V30 23 H 4.96504 -0.292335 2.46666 0
M  V30 24 H 5.45594 0.543159 0.974327 0
M  V30 END ATOM
M  V30 BEGIN BOND
M  V30 1 1 1 2
M  V30 2 1 2 3
M  V30 3 2 3 4
M  V30 4 1 4 5
M  V30 5 1 4 6
M  V30 6 1 6 7
M  V30 7 1 7 8
M  V30 8 1 8 9
M  V30 9 2 9 10
M  V30 10 1 8 11
M  V30 11 2 11 12
M  V30 12 1 12 13
M  V30 13 1 12 14
M  V30 14 1 9 3
M  V30 15 2 13 7
M  V30 16 1 1 15
M  V30 17 1 1 16
M  V30 18 1 1 17
M  V30 19 1 2 18
M  V30 20 1 2 19
M  V30 21 1 5 20
M  V30 22 1 5 21
M  V30 23 1 6 22
M  V30 24 1 14 23
M  V30 25 1 14 24
M  V30 END BOND
M  V30 END CTAB
M  END
