
     RDKit          3D

  0  0  0  0  0  0  0  0  0  0999 V3000
M  V30 BEGIN CTAB
M  V30 COUNTS 38 40 0 0 0
M  V30 BEGIN ATOM
M  V30 1 C -1.20442 -2.54061 0.122694 0
M  V30 2 N -0.868052 -1.19673 -0.247405 0
M  V30 3 C -1.74598 -0.398441 -1.02806 0
M  V30 4 C -2.98336 0.0617656 -0.370766 0
M  V30 5 C -3.79927 0.951568 -1.08572 0
M  V30 6 C -4.96974 1.45812 -0.558331 0
M  V30 7 Cl -5.97189 2.56784 -1.46362 0
M  V30 8 C -5.36963 1.0848 0.727292 0
M  V30 9 Cl -6.86743 1.75835 1.36009 0
M  V30 10 C -4.57781 0.215906 1.43287 0
M  V30 11 C -3.39374 -0.288478 0.880876 0
M  V30 12 C 0.369131 -0.654073 0.163762 0
M  V30 13 C 1.38604 -0.530713 -0.739557 0
M  V30 14 C 2.60349 -0.00880398 -0.345396 0
M  V30 15 C 2.79863 0.388274 0.95215 0
M  V30 16 C 1.76016 0.25936 1.86181 0
M  V30 17 C 0.54442 -0.262139 1.4662 0
M  V30 18 N 3.98921 0.890701 1.31445 0
M  V30 19 C 5.02306 1.03209 0.464041 0
M  V30 20 N 6.28151 1.57599 0.917229 0
M  V30 21 N 4.83744 0.647233 -0.807844 0
M  V30 22 C 3.65428 0.13177 -1.22873 0
M  V30 23 N 3.46098 -0.269231 -2.57698 0
M  V30 24 H -0.491934 -3.25035 -0.379525 0
M  V30 25 H -0.979847 -2.67299 1.21637 0
M  V30 26 H -2.25068 -2.82087 -0.103135 0
M  V30 27 H -1.22317 0.501185 -1.45641 0
M  V30 28 H -2.05196 -0.980962 -1.94328 0
M  V30 29 H -3.47964 1.2318 -2.08539 0
M  V30 30 H -4.8834 -0.0830258 2.44144 0
M  V30 31 H -2.78998 -0.967409 1.46401 0
M  V30 32 H 1.22642 -0.840588 -1.76779 0
M  V30 33 H 1.97703 0.588903 2.86208 0
M  V30 34 H -0.253718 -0.346626 2.22613 0
M  V30 35 H 6.5474 2.55442 0.693924 0
M  V30 36 H 6.89758 0.946233 1.46994 0
M  V30 37 H 3.31229 -1.25774 -2.80108 0
M  V30 38 H 3.48657 0.523465 -3.28669 0
M  V30 END ATOM
M  V30 BEGIN BOND
M  V30 1 1 1 2
M  V30 2 1 2 3
M  V30 3 1 3 4
M  V30 4 2 4 5
M  V30 5 1 5 6
M  V30 6 1 6 7
M  V30 7 2 6 8
M  V30 8 1 8 9
M  V30 9 1 8 10
M  V30 10 2 10 11
M  V30 11 1 2 12
M  V30 12 2 12 13
M  V30 13 1 13 14
M  V30 14 2 14 15
M  V30 15 1 15 16
M  V30 16 2 16 17
M  V30 17 1 15 18
M  V30 18 2 18 19
M  V30 19 1 19 20
M  V30 20 1 19 21
M  V30 21 2 21 22
M  V30 22 1 22 23
M  V30 23 1 11 4
M  V30 24 1 17 12
M  V30 25 1 22 14
M  V30 26 1 1 24
M  V30 27 1 1 25
M  V30 28 1 1 26
M  V30 29 1 3 27
M  V30 30 1 3 28
M  V30 31 1 5 29
M  V30 32 1 10 30
M  V30 33 1 11 31
M  V30 34 1 13 32
M  V30 35 1 16 33
M  V30 36 1 17 34
M  V30 37 1 20 35
M  V30 38 1 20 36
M  V30 39 1 23 37
M  V30 40 1 23 38
M  V30 END BOND
M  V30 END CTAB
M  END
