
     RDKit          3D

  0  0  0  0  0  0  0  0  0  0999 V3000
M  V30 BEGIN CTAB
M  V30 COUNTS 68 69 0 0 0
M  V30 BEGIN ATOM
M  V30 1 N -0.876782 -5.31839 2.13756 0
M  V30 2 C -2.2856 -5.35878 2.14294 0
M  V30 3 N -2.9113 -6.08682 3.00304 0
M  V30 4 N -2.96798 -4.57487 1.17354 0
M  V30 5 C -2.33117 -3.41736 0.535597 0
M  V30 6 C -2.15926 -2.37022 1.56917 0
M  V30 7 C -1.55687 -1.10757 1.18563 0
M  V30 8 C -2.25774 -0.211343 0.188893 0 CFG=1
M  V30 9 N -3.53285 0.241428 0.649342 0
M  V30 10 S -4.89764 0.0273017 -0.276017 0
M  V30 11 O -6.09481 0.418316 0.609442 0
M  V30 12 O -5.14547 -1.46594 -0.494114 0
M  V30 13 C -5.01939 0.754039 -1.84179 0
M  V30 14 C -4.96792 2.18913 -1.97501 0
M  V30 15 C -3.79075 2.81798 -2.28174 0
M  V30 16 C -3.67277 4.1909 -2.42388 0
M  V30 17 C -4.7988 4.93543 -2.24502 0
M  V30 18 C -5.99672 4.33251 -1.93618 0
M  V30 19 C -6.10564 2.96887 -1.79682 0
M  V30 20 C -1.3487 0.999554 0.127368 0
M  V30 21 O -1.69939 2.14112 0.490842 0
M  V30 22 N -0.0305273 0.840983 -0.366024 0
M  V30 23 C 0.909858 1.93846 -0.465935 0
M  V30 24 C 2.2094 1.50826 -0.998932 0
M  V30 25 O 2.34503 0.274642 -1.28754 0
M  V30 26 N 3.3075 2.38256 -1.20687 0
M  V30 27 C 4.56259 1.8707 -1.73802 0
M  V30 28 C 5.25606 1.16398 -0.628861 0
M  V30 29 C 4.85593 1.24653 0.684542 0
M  V30 30 C 5.54241 0.556131 1.69129 0
M  V30 31 C 6.6355 -0.226958 1.41635 0
M  V30 32 C 7.033 -0.302636 0.0748461 0
M  V30 33 C 6.34891 0.381864 -0.90772 0
M  V30 34 C 7.35628 -0.942012 2.42977 0
M  V30 35 N 8.46523 -1.74138 2.08389 0
M  V30 36 N 7.0223 -0.881759 3.65976 0
M  V30 37 H -0.369656 -5.16988 3.01926 0
M  V30 38 H -0.369613 -5.43787 1.25084 0
M  V30 39 H -3.94576 -6.13334 3.02735 0
M  V30 40 H -3.94299 -4.85654 0.932929 0
M  V30 41 H -1.32799 -3.79627 0.150971 0
M  V30 42 H -2.90795 -3.18487 -0.346659 0
M  V30 43 H -1.61177 -2.85369 2.42935 0
M  V30 44 H -3.18749 -2.19572 2.01485 0
M  V30 45 H -1.38294 -0.457136 2.09372 0
M  V30 46 H -0.505553 -1.29823 0.813685 0
M  V30 47 H -2.29415 -0.66345 -0.814209 0
M  V30 48 H -3.49488 1.04889 1.28586 0
M  V30 49 H -5.9746 0.399979 -2.31006 0
M  V30 50 H -4.22843 0.295285 -2.4891 0
M  V30 51 H -2.84456 2.27368 -2.43933 0
M  V30 52 H -2.73162 4.66957 -2.66713 0
M  V30 53 H -4.75188 6.02613 -2.3477 0
M  V30 54 H -6.90225 4.94449 -1.79369 0
M  V30 55 H -7.07057 2.52944 -1.55188 0
M  V30 56 H 0.297019 -0.0972932 -0.675182 0
M  V30 57 H 0.519689 2.78177 -1.07538 0
M  V30 58 H 1.11871 2.38609 0.545944 0
M  V30 59 H 3.26291 3.39785 -0.994579 0
M  V30 60 H 4.29881 1.07244 -2.47864 0
M  V30 61 H 5.18571 2.65716 -2.19753 0
M  V30 62 H 4.00355 1.84892 0.951423 0
M  V30 63 H 5.20204 0.642912 2.70621 0
M  V30 64 H 7.89302 -0.917818 -0.14547 0
M  V30 65 H 6.66578 0.317966 -1.95354 0
M  V30 66 H 9.40265 -1.29848 2.02628 0
M  V30 67 H 8.33617 -2.74402 1.89387 0
M  V30 68 H 6.25666 -0.362635 4.09213 0
M  V30 END ATOM
M  V30 BEGIN BOND
M  V30 1 1 1 2
M  V30 2 2 2 3 CFG=2
M  V30 3 1 2 4
M  V30 4 1 4 5
M  V30 5 1 5 6
M  V30 6 1 6 7
M  V30 7 1 7 8
M  V30 8 1 8 9
M  V30 9 1 9 10
M  V30 10 2 10 11
M  V30 11 2 10 12
M  V30 12 1 10 13
M  V30 13 1 13 14
M  V30 14 2 14 15
M  V30 15 1 15 16
M  V30 16 2 16 17
M  V30 17 1 17 18
M  V30 18 2 18 19
M  V30 19 1 8 20
M  V30 20 2 20 21
M  V30 21 1 20 22
M  V30 22 1 22 23
M  V30 23 1 23 24
M  V30 24 2 24 25
M  V30 25 1 24 26
M  V30 26 1 26 27
M  V30 27 1 27 28
M  V30 28 2 28 29
M  V30 29 1 29 30
M  V30 30 2 30 31
M  V30 31 1 31 32
M  V30 32 2 32 33
M  V30 33 1 31 34
M  V30 34 1 34 35
M  V30 35 2 34 36 CFG=2
M  V30 36 1 19 14
M  V30 37 1 33 28
M  V30 38 1 1 37
M  V30 39 1 1 38
M  V30 40 1 3 39
M  V30 41 1 4 40
M  V30 42 1 5 41
M  V30 43 1 5 42
M  V30 44 1 6 43
M  V30 45 1 6 44
M  V30 46 1 7 45
M  V30 47 1 7 46
M  V30 48 1 8 47 CFG=3
M  V30 49 1 9 48
M  V30 50 1 13 49
M  V30 51 1 13 50
M  V30 52 1 15 51
M  V30 53 1 16 52
M  V30 54 1 17 53
M  V30 55 1 18 54
M  V30 56 1 19 55
M  V30 57 1 22 56
M  V30 58 1 23 57
M  V30 59 1 23 58
M  V30 60 1 26 59
M  V30 61 1 27 60
M  V30 62 1 27 61
M  V30 63 1 29 62
M  V30 64 1 30 63
M  V30 65 1 32 64
M  V30 66 1 33 65
M  V30 67 1 35 66
M  V30 68 1 35 67
M  V30 69 1 36 68
M  V30 END BOND
M  V30 END CTAB
M  END
