
     RDKit          3D

  0  0  0  0  0  0  0  0  0  0999 V3000
M  V30 BEGIN CTAB
M  V30 COUNTS 97 98 0 0 0
M  V30 BEGIN ATOM
M  V30 1 N -8.99536 4.72671 -0.519839 0
M  V30 2 C -8.8331 3.37976 0.0496097 0
M  V30 3 C -8.78819 2.45107 -1.12481 0
M  V30 4 C -8.63206 0.981317 -0.720268 0
M  V30 5 C -7.34719 0.856546 0.0309623 0
M  V30 6 C -7.03766 -0.540488 0.517192 0 CFG=1
M  V30 7 C -6.91151 -1.5551 -0.517544 0
M  V30 8 O -5.88109 -2.30468 -0.524688 0
M  V30 9 O -7.8202 -1.79719 -1.52047 0
M  V30 10 N -5.9307 -0.538295 1.44714 0
M  V30 11 C -4.58331 -0.200553 1.07452 0
M  V30 12 O -4.38136 0.104996 -0.126427 0
M  V30 13 C -3.48456 -0.206476 2.0346 0
M  V30 14 C -2.10865 -0.0329 1.49949 0
M  V30 15 C -1.67224 -1.11291 0.614323 0 CFG=2
M  V30 16 C -1.61048 -2.48743 1.27908 0 CFG=2
M  V30 17 O -0.559646 -2.45314 2.17539 0
M  V30 18 C -0.890768 -2.58434 3.49547 0
M  V30 19 C -1.47763 -3.5742 0.255085 0
M  V30 20 C -0.625596 -3.29823 -0.908603 0
M  V30 21 C -0.382978 -1.88325 -1.27079 0
M  V30 22 N -0.424459 -0.992315 -0.0832075 0
M  V30 23 C 0.644516 -0.160246 0.247445 0
M  V30 24 O 0.514773 0.577747 1.25303 0
M  V30 25 C 1.92221 -0.0742796 -0.491256 0 CFG=1
M  V30 26 N 2.74351 0.972515 0.184801 0
M  V30 27 C 3.14361 2.12135 -0.479228 0
M  V30 28 O 2.74965 2.24155 -1.70969 0
M  V30 29 C 3.93313 3.19072 0.0365533 0 CFG=2
M  V30 30 C 4.71193 3.14206 1.27345 0
M  V30 31 C 5.83101 2.17082 1.34165 0
M  V30 32 C 5.81283 0.925043 1.89756 0
M  V30 33 C 6.89457 0.0676263 1.91232 0
M  V30 34 C 8.0783 0.445467 1.34842 0
M  V30 35 C 8.14901 1.69475 0.774011 0
M  V30 36 C 7.07258 2.53872 0.763075 0
M  V30 37 N 3.44964 4.54448 -0.217462 0
M  V30 38 C 3.41041 4.85003 -1.60923 0
M  V30 39 C 2.77957 -1.29445 -0.364306 0
M  V30 40 C 4.08253 -1.14557 -1.14993 0
M  V30 41 C 4.89862 -2.39875 -0.988713 0
M  V30 42 N 6.13925 -2.32674 -1.70514 0
M  V30 43 C 7.02945 -3.43185 -1.67249 0
M  V30 44 N 8.12528 -3.42505 -2.34316 0
M  V30 45 N 6.72646 -4.57622 -0.893617 0
M  V30 46 H -9.24917 5.38427 0.242253 0
M  V30 47 H -8.07095 5.00458 -0.884088 0
M  V30 48 H -7.88367 3.44241 0.611933 0
M  V30 49 H -9.69959 3.1781 0.722809 0
M  V30 50 H -7.8749 2.68334 -1.70948 0
M  V30 51 H -9.69895 2.51347 -1.73673 0
M  V30 52 H -9.51169 0.695214 -0.127228 0
M  V30 53 H -8.67882 0.420288 -1.67294 0
M  V30 54 H -7.46145 1.51534 0.943667 0
M  V30 55 H -6.48538 1.24718 -0.504429 0
M  V30 56 H -7.95381 -0.826813 1.12784 0
M  V30 57 H -8.23289 -2.70573 -1.68694 0
M  V30 58 H -6.11225 -0.792713 2.43365 0
M  V30 59 H -3.53937 -1.07247 2.74079 0
M  V30 60 H -3.67223 0.684128 2.71499 0
M  V30 61 H -2.09685 0.927836 0.939099 0
M  V30 62 H -1.45261 0.100725 2.40645 0
M  V30 63 H -2.51882 -1.2551 -0.145965 0
M  V30 64 H -2.54391 -2.59858 1.85971 0
M  V30 65 H -1.41144 -3.56348 3.71289 0
M  V30 66 H -1.41993 -1.73276 3.91835 0
M  V30 67 H 0.0847896 -2.67341 4.05531 0
M  V30 68 H -1.12606 -4.48935 0.816543 0
M  V30 69 H -2.50424 -3.83555 -0.0786558 0
M  V30 70 H 0.389473 -3.76601 -0.725163 0
M  V30 71 H -0.994967 -3.85627 -1.81801 0
M  V30 72 H -1.29424 -1.53522 -1.85326 0
M  V30 73 H 0.444145 -1.66243 -1.93618 0
M  V30 74 H 1.78089 0.231051 -1.54417 0
M  V30 75 H 2.92023 0.718343 1.17682 0
M  V30 76 H 4.84658 3.21067 -0.780556 0
M  V30 77 H 4.06036 2.9726 2.19449 0
M  V30 78 H 5.18614 4.14267 1.51484 0
M  V30 79 H 4.90483 0.591741 2.36272 0
M  V30 80 H 6.78603 -0.917873 2.38302 0
M  V30 81 H 8.89798 -0.246128 1.37773 0
M  V30 82 H 9.1099 1.96855 0.331212 0
M  V30 83 H 7.1447 3.51375 0.310563 0
M  V30 84 H 2.61381 4.79308 0.315619 0
M  V30 85 H 4.15413 4.2029 -2.14215 0
M  V30 86 H 3.738 5.89143 -1.82274 0
M  V30 87 H 2.41168 4.64978 -2.0347 0
M  V30 88 H 2.34349 -2.23908 -0.669532 0
M  V30 89 H 3.12701 -1.3137 0.714771 0
M  V30 90 H 4.68107 -0.295544 -0.79505 0
M  V30 91 H 3.85071 -1.04393 -2.24301 0
M  V30 92 H 5.16632 -2.46197 0.107136 0
M  V30 93 H 4.31716 -3.31426 -1.2022 0
M  V30 94 H 6.41105 -1.46358 -2.26196 0
M  V30 95 H 8.41537 -2.61786 -2.93966 0
M  V30 96 H 6.32138 -5.42901 -1.3114 0
M  V30 97 H 6.91691 -4.56326 0.136477 0
M  V30 END ATOM
M  V30 BEGIN BOND
M  V30 1 1 1 2
M  V30 2 1 2 3
M  V30 3 1 3 4
M  V30 4 1 4 5
M  V30 5 1 5 6
M  V30 6 1 6 7
M  V30 7 2 7 8
M  V30 8 1 7 9
M  V30 9 1 6 10
M  V30 10 1 10 11
M  V30 11 2 11 12
M  V30 12 1 11 13
M  V30 13 1 13 14
M  V30 14 1 14 15
M  V30 15 1 15 16
M  V30 16 1 16 17
M  V30 17 1 17 18
M  V30 18 1 16 19
M  V30 19 1 19 20
M  V30 20 1 20 21
M  V30 21 1 21 22
M  V30 22 1 22 23
M  V30 23 2 23 24
M  V30 24 1 23 25
M  V30 25 1 25 26
M  V30 26 1 26 27
M  V30 27 2 27 28
M  V30 28 1 27 29
M  V30 29 1 29 30
M  V30 30 1 30 31
M  V30 31 2 31 32
M  V30 32 1 32 33
M  V30 33 2 33 34
M  V30 34 1 34 35
M  V30 35 2 35 36
M  V30 36 1 29 37
M  V30 37 1 37 38
M  V30 38 1 25 39
M  V30 39 1 39 40
M  V30 40 1 40 41
M  V30 41 1 41 42
M  V30 42 1 42 43
M  V30 43 2 43 44 CFG=2
M  V30 44 1 43 45
M  V30 45 1 22 15
M  V30 46 1 36 31
M  V30 47 1 1 46
M  V30 48 1 1 47
M  V30 49 1 2 48
M  V30 50 1 2 49
M  V30 51 1 3 50
M  V30 52 1 3 51
M  V30 53 1 4 52
M  V30 54 1 4 53
M  V30 55 1 5 54
M  V30 56 1 5 55
M  V30 57 1 6 56 CFG=1
M  V30 58 1 9 57
M  V30 59 1 10 58
M  V30 60 1 13 59
M  V30 61 1 13 60
M  V30 62 1 14 61
M  V30 63 1 14 62
M  V30 64 1 15 63 CFG=3
M  V30 65 1 16 64 CFG=1
M  V30 66 1 18 65
M  V30 67 1 18 66
M  V30 68 1 18 67
M  V30 69 1 19 68
M  V30 70 1 19 69
M  V30 71 1 20 70
M  V30 72 1 20 71
M  V30 73 1 21 72
M  V30 74 1 21 73
M  V30 75 1 25 74 CFG=3
M  V30 76 1 26 75
M  V30 77 1 29 76 CFG=3
M  V30 78 1 30 77
M  V30 79 1 30 78
M  V30 80 1 32 79
M  V30 81 1 33 80
M  V30 82 1 34 81
M  V30 83 1 35 82
M  V30 84 1 36 83
M  V30 85 1 37 84
M  V30 86 1 38 85
M  V30 87 1 38 86
M  V30 88 1 38 87
M  V30 89 1 39 88
M  V30 90 1 39 89
M  V30 91 1 40 90
M  V30 92 1 40 91
M  V30 93 1 41 92
M  V30 94 1 41 93
M  V30 95 1 42 94
M  V30 96 1 44 95
M  V30 97 1 45 96
M  V30 98 1 45 97
M  V30 END BOND
M  V30 END CTAB
M  END
