
     RDKit          3D

  0  0  0  0  0  0  0  0  0  0999 V3000
M  V30 BEGIN CTAB
M  V30 COUNTS 24 23 0 0 0
M  V30 BEGIN ATOM
M  V30 1 N 3.2127 -0.378581 -0.359362 0
M  V30 2 C 1.76762 -0.449948 -0.713562 0
M  V30 3 C 1.08798 0.459899 0.247911 0
M  V30 4 C -0.370977 0.647454 0.140694 0
M  V30 5 C -1.26219 -0.530515 0.294512 0
M  V30 6 N -2.66474 -0.0969769 0.181527 0
M  V30 7 C -1.10207 -1.59883 -0.758714 0
M  V30 8 C -0.74349 1.75845 1.13076 0
M  V30 9 H 3.63377 -1.30162 -0.491009 0
M  V30 10 H 3.67672 0.365282 -0.892058 0
M  V30 11 H 1.48038 -1.51237 -0.669097 0
M  V30 12 H 1.67139 -0.119569 -1.76385 0
M  V30 13 H 1.31859 0.162591 1.32437 0
M  V30 14 H 1.64377 1.45302 0.179007 0
M  V30 15 H -0.581054 1.09159 -0.887872 0
M  V30 16 H -1.17707 -1.01399 1.28808 0
M  V30 17 H -2.74285 0.732055 -0.446877 0
M  V30 18 H -3.07554 0.0695843 1.12509 0
M  V30 19 H -2.13488 -1.93642 -1.06516 0
M  V30 20 H -0.649175 -1.24574 -1.69285 0
M  V30 21 H -0.627722 -2.51831 -0.342067 0
M  V30 22 H -1.82274 1.87345 1.23576 0
M  V30 23 H -0.204547 2.67297 0.823434 0
M  V30 24 H -0.333888 1.41654 2.11134 0
M  V30 END ATOM
M  V30 BEGIN BOND
M  V30 1 1 1 2
M  V30 2 1 2 3
M  V30 3 1 3 4
M  V30 4 1 4 5
M  V30 5 1 5 6
M  V30 6 1 5 7
M  V30 7 1 4 8
M  V30 8 1 1 9
M  V30 9 1 1 10
M  V30 10 1 2 11
M  V30 11 1 2 12
M  V30 12 1 3 13
M  V30 13 1 3 14
M  V30 14 1 4 15
M  V30 15 1 5 16
M  V30 16 1 6 17
M  V30 17 1 6 18
M  V30 18 1 7 19
M  V30 19 1 7 20
M  V30 20 1 7 21
M  V30 21 1 8 22
M  V30 22 1 8 23
M  V30 23 1 8 24
M  V30 END BOND
M  V30 END CTAB
M  END
