
     RDKit          3D

  0  0  0  0  0  0  0  0  0  0999 V3000
M  V30 BEGIN CTAB
M  V30 COUNTS 37 39 0 0 0
M  V30 BEGIN ATOM
M  V30 1 C 7.98812 -0.440575 0.395981 0
M  V30 2 S 7.11553 1.09494 0.0837354 0
M  V30 3 C 5.34481 0.882381 0.0540334 0
M  V30 4 C 4.5773 1.99536 -0.177527 0
M  V30 5 C 3.20923 1.91414 -0.215542 0
M  V30 6 C 2.52932 0.699635 -0.0213707 0
M  V30 7 C 3.33576 -0.39037 0.207522 0
M  V30 8 C 4.7323 -0.315791 0.24784 0
M  V30 9 N 1.12536 0.682693 -0.0724603 0
M  V30 10 C 0.25247 -0.384674 0.0876852 0
M  V30 11 O 0.588482 -1.54254 0.310921 0
M  V30 12 C -1.19223 -0.0803946 -0.0233356 0
M  V30 13 S -1.9494 1.41664 -0.324386 0
M  V30 14 C -3.57623 0.908732 -0.294979 0
M  V30 15 C -3.479 -0.429684 -0.0482087 0
M  V30 16 C -2.23891 -0.951317 0.0943851 0
M  V30 17 N -1.99293 -2.37358 0.362122 0
M  V30 18 C -4.71494 -1.10133 0.0260107 0
M  V30 19 C -5.88454 -0.414517 -0.143864 0
M  V30 20 C -5.94349 0.937641 -0.39165 0
M  V30 21 N -4.76456 1.57293 -0.46147 0
M  V30 22 N -7.1722 1.63337 -0.56543 0
M  V30 23 C -7.16901 -1.09101 -0.0706421 0
M  V30 24 N -8.17707 -1.64048 -0.00126377 0
M  V30 25 H 8.9185 -0.444581 -0.240145 0
M  V30 26 H 7.4262 -1.34183 0.105628 0
M  V30 27 H 8.35976 -0.488164 1.44445 0
M  V30 28 H 5.05546 2.97221 -0.336351 0
M  V30 29 H 2.63829 2.8046 -0.399146 0
M  V30 30 H 2.88083 -1.36594 0.367005 0
M  V30 31 H 5.32018 -1.20461 0.431797 0
M  V30 32 H 0.663598 1.63364 -0.262964 0
M  V30 33 H -1.68653 -2.70283 1.29248 0
M  V30 34 H -2.12291 -3.0876 -0.385789 0
M  V30 35 H -4.78613 -2.1611 0.215679 0
M  V30 36 H -7.13235 2.56033 -1.04625 0
M  V30 37 H -8.0791 1.27011 -0.244503 0
M  V30 END ATOM
M  V30 BEGIN BOND
M  V30 1 1 1 2
M  V30 2 1 2 3
M  V30 3 2 3 4
M  V30 4 1 4 5
M  V30 5 2 5 6
M  V30 6 1 6 7
M  V30 7 2 7 8
M  V30 8 1 6 9
M  V30 9 1 9 10
M  V30 10 2 10 11
M  V30 11 1 10 12
M  V30 12 1 12 13
M  V30 13 1 13 14
M  V30 14 2 14 15
M  V30 15 1 15 16
M  V30 16 1 16 17
M  V30 17 1 15 18
M  V30 18 2 18 19
M  V30 19 1 19 20
M  V30 20 2 20 21
M  V30 21 1 20 22
M  V30 22 1 19 23
M  V30 23 3 23 24
M  V30 24 1 8 3
M  V30 25 2 16 12
M  V30 26 1 21 14
M  V30 27 1 1 25
M  V30 28 1 1 26
M  V30 29 1 1 27
M  V30 30 1 4 28
M  V30 31 1 5 29
M  V30 32 1 7 30
M  V30 33 1 8 31
M  V30 34 1 9 32
M  V30 35 1 17 33
M  V30 36 1 17 34
M  V30 37 1 18 35
M  V30 38 1 22 36
M  V30 39 1 22 37
M  V30 END BOND
M  V30 END CTAB
M  END
