
     RDKit          3D

  0  0  0  0  0  0  0  0  0  0999 V3000
M  V30 BEGIN CTAB
M  V30 COUNTS 19 19 0 0 0
M  V30 BEGIN ATOM
M  V30 1 C 3.29188 -0.332512 0.201264 0
M  V30 2 S 2.19393 -0.41625 -1.26114 0
M  V30 3 C 0.633563 0.367325 -0.79099 0
M  V30 4 N 0.41634 1.67501 -0.952537 0
M  V30 5 C -0.749792 2.23844 -0.596837 0
M  V30 6 C -1.78317 1.50835 -0.0487096 0
M  V30 7 C -1.59212 0.16255 0.130465 0
M  V30 8 C -0.367332 -0.403641 -0.248039 0
M  V30 9 N -0.178224 -1.79572 -0.0599826 0
M  V30 10 N -2.60084 -0.662285 0.686762 0
M  V30 11 H 3.17151 0.617797 0.750707 0
M  V30 12 H 3.01337 -1.14848 0.919105 0
M  V30 13 H 4.34764 -0.534188 -0.074835 0
M  V30 14 H -0.923078 3.29811 -0.728947 0
M  V30 15 H -2.72866 1.9371 0.244811 0
M  V30 16 H 0.731626 -2.21505 -0.329509 0
M  V30 17 H -0.917874 -2.4066 0.337034 0
M  V30 18 H -2.79615 -1.609 0.35222 0
M  V30 19 H -3.16261 -0.280951 1.46916 0
M  V30 END ATOM
M  V30 BEGIN BOND
M  V30 1 1 1 2
M  V30 2 1 2 3
M  V30 3 2 3 4
M  V30 4 1 4 5
M  V30 5 2 5 6
M  V30 6 1 6 7
M  V30 7 2 7 8
M  V30 8 1 8 9
M  V30 9 1 7 10
M  V30 10 1 8 3
M  V30 11 1 1 11
M  V30 12 1 1 12
M  V30 13 1 1 13
M  V30 14 1 5 14
M  V30 15 1 6 15
M  V30 16 1 9 16
M  V30 17 1 9 17
M  V30 18 1 10 18
M  V30 19 1 10 19
M  V30 END BOND
M  V30 END CTAB
M  END
