
     RDKit          3D

  0  0  0  0  0  0  0  0  0  0999 V3000
M  V30 BEGIN CTAB
M  V30 COUNTS 132 134 0 0 0
M  V30 BEGIN ATOM
M  V30 1 C 7.93105 2.64276 0.425013 0 CFG=1
M  V30 2 N 8.07471 2.0225 1.73355 0
M  V30 3 C 9.32553 2.94547 -0.0580503 0
M  V30 4 C 10.0608 3.86748 0.880147 0
M  V30 5 C 9.41916 5.19712 1.07493 0
M  V30 6 N 9.30267 5.9495 -0.158186 0
M  V30 7 C 8.72335 7.24072 -0.112834 0
M  V30 8 N 7.91457 7.6016 1.01419 0
M  V30 9 N 8.88298 8.13044 -1.03896 0
M  V30 10 C 7.21981 1.72499 -0.515197 0
M  V30 11 O 6.98677 2.15595 -1.66887 0
M  V30 12 N 6.82917 0.435868 -0.139183 0
M  V30 13 C 6.1619 -0.553567 -0.944298 0 CFG=1
M  V30 14 C 7.0528 -1.70347 -1.2834 0
M  V30 15 C 7.60203 -2.43662 -0.107763 0
M  V30 16 C 8.23759 -1.26998 -2.13452 0
M  V30 17 C 4.82185 -0.927292 -0.434238 0
M  V30 18 O 4.36078 -0.353485 0.578804 0
M  V30 19 N 4.02094 -1.92478 -1.05086 0
M  V30 20 C 2.75835 -2.40935 -0.704489 0 CFG=1
M  V30 21 C 2.56295 -2.75088 0.766973 0
M  V30 22 C 3.46025 -3.83415 1.19891 0
M  V30 23 C 3.08822 -5.17003 0.939723 0
M  V30 24 C 3.84171 -6.24109 1.3264 0
M  V30 25 C 5.00606 -6.00818 1.99323 0
M  V30 26 O 5.80562 -7.07885 2.40242 0
M  V30 27 C 5.44865 -4.7218 2.29186 0
M  V30 28 C 4.63435 -3.66841 1.87037 0
M  V30 29 C 1.57607 -1.70351 -1.2593 0
M  V30 30 O 1.71861 -0.616142 -1.8514 0
M  V30 31 N 0.304636 -2.30824 -1.09514 0
M  V30 32 C -0.964234 -1.83369 -1.51947 0 CFG=2
M  V30 33 C -2.01559 -2.09605 -0.447815 0
M  V30 34 O -1.57333 -2.75778 0.504862 0
M  V30 35 N -3.30908 -1.63679 -0.561515 0
M  V30 36 C -4.53407 -1.68277 0.12465 0 CFG=1
M  V30 37 C -4.5462 -1.53875 1.62559 0
M  V30 38 C -3.96919 -2.61963 2.41032 0
M  V30 39 C -3.40372 -2.50136 3.65985 0
M  V30 40 N -3.05879 -3.71679 4.11724 0
M  V30 41 C -3.4042 -4.59672 3.16572 0
M  V30 42 N -3.95349 -3.95755 2.13091 0
M  V30 43 C -5.55603 -0.810313 -0.453707 0
M  V30 44 O -5.14987 -0.0374028 -1.39437 0
M  V30 45 N -6.91477 -0.708876 -0.117741 0
M  V30 46 C -7.7068 -1.44599 0.843655 0
M  V30 47 C -9.09046 -1.58125 0.204025 0
M  V30 48 C -9.11621 -0.515586 -0.839844 0
M  V30 49 C -7.85904 0.254516 -0.712618 0 CFG=1
M  V30 50 C -7.94471 1.46587 0.141475 0
M  V30 51 O -7.15345 1.56964 1.10835 0
M  V30 52 N -8.88141 2.50285 -0.0957348 0
M  V30 53 C -8.91403 3.70525 0.806071 0 CFG=2
M  V30 54 C -10.1997 3.62461 1.54727 0
M  V30 55 O -10.5101 4.46818 2.55746 0
M  V30 56 O -11.0645 2.73435 1.24756 0
M  V30 57 C -8.88993 4.92137 -0.0596148 0 CFG=1
M  V30 58 C -10.1047 5.03501 -0.958803 0
M  V30 59 C -8.34852 6.17742 0.439761 0
M  V30 60 C -8.92957 6.87333 1.60646 0
M  V30 61 C -1.41771 -2.53335 -2.78411 0 CFG=1
M  V30 62 C -0.483542 -2.34922 -3.93612 0
M  V30 63 C -1.82462 -3.94695 -2.65879 0
M  V30 64 C -0.833641 -4.94584 -2.20376 0
M  V30 65 H 7.37341 3.57091 0.529159 0
M  V30 66 H 7.18827 1.90065 2.2275 0
M  V30 67 H 8.72318 1.22498 1.70686 0
M  V30 68 H 9.31383 3.45709 -1.05164 0
M  V30 69 H 9.94778 2.0309 -0.184485 0
M  V30 70 H 10.1613 3.35778 1.87358 0
M  V30 71 H 11.1073 4.04631 0.504148 0
M  V30 72 H 8.40772 5.04461 1.52798 0
M  V30 73 H 9.98989 5.77072 1.83682 0
M  V30 74 H 9.63944 5.55114 -1.05798 0
M  V30 75 H 6.87269 7.56503 0.984144 0
M  V30 76 H 8.45506 7.90324 1.87191 0
M  V30 77 H 9.44711 7.97781 -1.89494 0
M  V30 78 H 7.04787 0.153271 0.861944 0
M  V30 79 H 5.96716 -0.0280001 -1.9378 0
M  V30 80 H 6.48443 -2.4424 -1.91505 0
M  V30 81 H 8.71766 -2.33607 -0.0993703 0
M  V30 82 H 7.41004 -3.51646 -0.190613 0
M  V30 83 H 7.20156 -2.10449 0.875967 0
M  V30 84 H 9.01959 -0.7553 -1.53766 0
M  V30 85 H 7.9375 -0.681239 -2.99706 0
M  V30 86 H 8.73619 -2.22992 -2.45893 0
M  V30 87 H 4.48326 -2.34487 -1.92568 0
M  V30 88 H 2.68608 -3.46324 -1.18802 0
M  V30 89 H 1.52042 -3.13279 0.873529 0
M  V30 90 H 2.70046 -1.86117 1.42583 0
M  V30 91 H 2.1546 -5.30455 0.414457 0
M  V30 92 H 3.53942 -7.26578 1.11508 0
M  V30 93 H 5.65724 -7.50339 3.33188 0
M  V30 94 H 6.36058 -4.57363 2.81678 0
M  V30 95 H 4.97857 -2.6779 2.11301 0
M  V30 96 H 0.255724 -3.24802 -0.567949 0
M  V30 97 H -0.949431 -0.767293 -1.71412 0
M  V30 98 H -3.40376 -1.03604 -1.52953 0
M  V30 99 H -4.89067 -2.7908 -0.0502476 0
M  V30 100 H -5.4813 -1.21893 2.06263 0
M  V30 101 H -3.84861 -0.639839 1.80973 0
M  V30 102 H -3.25798 -1.5521 4.20469 0
M  V30 103 H -3.28098 -5.69975 3.16827 0
M  V30 104 H -4.33274 -4.30533 1.21117 0
M  V30 105 H -7.29998 -2.4372 1.0503 0
M  V30 106 H -7.82567 -0.916724 1.81506 0
M  V30 107 H -9.21692 -2.59264 -0.211296 0
M  V30 108 H -9.89058 -1.42663 0.955891 0
M  V30 109 H -9.12657 -0.988874 -1.84966 0
M  V30 110 H -10.0589 0.0811838 -0.799657 0
M  V30 111 H -7.47202 0.518821 -1.73493 0
M  V30 112 H -9.53609 2.43608 -0.87946 0
M  V30 113 H -8.04572 3.59114 1.46497 0
M  V30 114 H -11.2704 4.37556 3.20573 0
M  V30 115 H -8.05897 4.59823 -0.863592 0
M  V30 116 H -10.0869 4.20651 -1.67782 0
M  V30 117 H -10.0295 6.0147 -1.48628 0
M  V30 118 H -11.052 5.05419 -0.372291 0
M  V30 119 H -8.32569 6.91656 -0.438331 0
M  V30 120 H -7.23526 6.0818 0.658697 0
M  V30 121 H -10.0235 7.03105 1.59451 0
M  V30 122 H -8.61468 6.53475 2.602 0
M  V30 123 H -8.5376 7.95958 1.58342 0
M  V30 124 H -2.36594 -1.96593 -3.09269 0
M  V30 125 H -0.402167 -1.26603 -4.24499 0
M  V30 126 H -0.929704 -2.83686 -4.82536 0
M  V30 127 H 0.512414 -2.80053 -3.783 0
M  V30 128 H -2.26154 -4.26431 -3.64519 0
M  V30 129 H -2.7458 -3.9451 -1.98499 0
M  V30 130 H 0.216864 -4.66328 -2.45384 0
M  V30 131 H -0.992481 -5.89155 -2.81535 0
M  V30 132 H -0.873125 -5.23398 -1.13561 0
M  V30 END ATOM
M  V30 BEGIN BOND
M  V30 1 1 1 2
M  V30 2 1 1 3
M  V30 3 1 3 4
M  V30 4 1 4 5
M  V30 5 1 5 6
M  V30 6 1 6 7
M  V30 7 1 7 8
M  V30 8 2 7 9 CFG=2
M  V30 9 1 1 10
M  V30 10 2 10 11
M  V30 11 1 10 12
M  V30 12 1 12 13
M  V30 13 1 13 14
M  V30 14 1 14 15
M  V30 15 1 14 16
M  V30 16 1 13 17
M  V30 17 2 17 18
M  V30 18 1 17 19
M  V30 19 1 19 20
M  V30 20 1 20 21
M  V30 21 1 21 22
M  V30 22 2 22 23
M  V30 23 1 23 24
M  V30 24 2 24 25
M  V30 25 1 25 26
M  V30 26 1 25 27
M  V30 27 2 27 28
M  V30 28 1 20 29
M  V30 29 2 29 30
M  V30 30 1 29 31
M  V30 31 1 31 32
M  V30 32 1 32 33
M  V30 33 2 33 34
M  V30 34 1 33 35
M  V30 35 1 35 36
M  V30 36 1 36 37
M  V30 37 1 37 38
M  V30 38 2 38 39
M  V30 39 1 39 40
M  V30 40 2 40 41
M  V30 41 1 41 42
M  V30 42 1 36 43
M  V30 43 2 43 44
M  V30 44 1 43 45
M  V30 45 1 45 46
M  V30 46 1 46 47
M  V30 47 1 47 48
M  V30 48 1 48 49
M  V30 49 1 49 50
M  V30 50 2 50 51
M  V30 51 1 50 52
M  V30 52 1 52 53
M  V30 53 1 53 54
M  V30 54 1 54 55
M  V30 55 2 54 56
M  V30 56 1 53 57
M  V30 57 1 57 58
M  V30 58 1 57 59
M  V30 59 1 59 60
M  V30 60 1 32 61
M  V30 61 1 61 62
M  V30 62 1 61 63
M  V30 63 1 63 64
M  V30 64 1 28 22
M  V30 65 1 42 38
M  V30 66 1 49 45
M  V30 67 1 1 65 CFG=1
M  V30 68 1 2 66
M  V30 69 1 2 67
M  V30 70 1 3 68
M  V30 71 1 3 69
M  V30 72 1 4 70
M  V30 73 1 4 71
M  V30 74 1 5 72
M  V30 75 1 5 73
M  V30 76 1 6 74
M  V30 77 1 8 75
M  V30 78 1 8 76
M  V30 79 1 9 77
M  V30 80 1 12 78
M  V30 81 1 13 79 CFG=3
M  V30 82 1 14 80
M  V30 83 1 15 81
M  V30 84 1 15 82
M  V30 85 1 15 83
M  V30 86 1 16 84
M  V30 87 1 16 85
M  V30 88 1 16 86
M  V30 89 1 19 87
M  V30 90 1 20 88 CFG=3
M  V30 91 1 21 89
M  V30 92 1 21 90
M  V30 93 1 23 91
M  V30 94 1 24 92
M  V30 95 1 26 93
M  V30 96 1 27 94
M  V30 97 1 28 95
M  V30 98 1 31 96
M  V30 99 1 32 97 CFG=3
M  V30 100 1 35 98
M  V30 101 1 36 99 CFG=1
M  V30 102 1 37 100
M  V30 103 1 37 101
M  V30 104 1 39 102
M  V30 105 1 41 103
M  V30 106 1 42 104
M  V30 107 1 46 105
M  V30 108 1 46 106
M  V30 109 1 47 107
M  V30 110 1 47 108
M  V30 111 1 48 109
M  V30 112 1 48 110
M  V30 113 1 49 111 CFG=3
M  V30 114 1 52 112
M  V30 115 1 53 113 CFG=1
M  V30 116 1 55 114
M  V30 117 1 57 115 CFG=3
M  V30 118 1 58 116
M  V30 119 1 58 117
M  V30 120 1 58 118
M  V30 121 1 59 119
M  V30 122 1 59 120
M  V30 123 1 60 121
M  V30 124 1 60 122
M  V30 125 1 60 123
M  V30 126 1 61 124 CFG=3
M  V30 127 1 62 125
M  V30 128 1 62 126
M  V30 129 1 62 127
M  V30 130 1 63 128
M  V30 131 1 63 129
M  V30 132 1 64 130
M  V30 133 1 64 131
M  V30 134 1 64 132
M  V30 END BOND
M  V30 END CTAB
M  END
