
     RDKit          3D

  0  0  0  0  0  0  0  0  0  0999 V3000
M  V30 BEGIN CTAB
M  V30 COUNTS 43 44 0 0 0
M  V30 BEGIN ATOM
M  V30 1 N -7.86505 -0.980958 -1.05724 0
M  V30 2 C -6.50778 -0.594625 -0.923293 0
M  V30 3 C -5.85091 -0.0499914 -2.00362 0
M  V30 4 C -4.54432 0.347507 -1.95862 0
M  V30 5 Cl -3.72733 1.04044 -3.35189 0
M  V30 6 C -3.7876 0.215965 -0.775427 0
M  V30 7 O -2.50035 0.615102 -0.742197 0
M  V30 8 C -1.52506 0.582782 0.252677 0
M  V30 9 C -1.10969 -0.781182 0.664477 0
M  V30 10 C -0.105836 -0.890441 1.73221 0
M  V30 11 C 1.30166 -0.497041 1.61056 0
M  V30 12 C 1.58864 0.900015 1.26811 0
M  V30 13 O 2.93039 1.26971 1.27967 0
M  V30 14 C 4.01625 0.926733 0.597857 0
M  V30 15 C 4.01639 0.0126716 -0.419604 0
M  V30 16 C 5.16032 -0.334905 -1.1259 0
M  V30 17 C 6.36483 0.241764 -0.82145 0
M  V30 18 N 7.56035 -0.0833713 -1.5172 0
M  V30 19 C 6.38558 1.17236 0.20747 0
M  V30 20 C 5.25561 1.51448 0.904301 0
M  V30 21 Cl 5.40333 2.69962 2.18067 0
M  V30 22 C -4.4409 -0.325023 0.300801 0
M  V30 23 C -5.77973 -0.727291 0.236718 0
M  V30 24 H -8.56114 -0.880554 -0.293215 0
M  V30 25 H -8.18572 -1.38483 -1.96083 0
M  V30 26 H -6.42268 0.0603065 -2.93255 0
M  V30 27 H -0.684432 1.23507 0.00135186 0
M  V30 28 H -2.01169 1.12271 1.14153 0
M  V30 29 H -0.7856 -1.38079 -0.263793 0
M  V30 30 H -1.99414 -1.41272 0.996238 0
M  V30 31 H -0.164453 -1.96129 2.20252 0
M  V30 32 H -0.596077 -0.322268 2.63238 0
M  V30 33 H 1.78042 -0.746934 2.6375 0
M  V30 34 H 1.80215 -1.24519 0.929544 0
M  V30 35 H 0.906491 1.58946 1.73872 0
M  V30 36 H 1.35868 0.969616 0.126748 0
M  V30 37 H 3.12281 -0.498845 -0.764407 0
M  V30 38 H 5.14696 -1.06094 -1.92945 0
M  V30 39 H 8.46253 0.0544317 -1.02475 0
M  V30 40 H 7.50576 -0.446086 -2.48805 0
M  V30 41 H 7.33456 1.63888 0.460456 0
M  V30 42 H -3.9792 -0.454575 1.27331 0
M  V30 43 H -6.27402 -1.14977 1.09023 0
M  V30 END ATOM
M  V30 BEGIN BOND
M  V30 1 1 1 2
M  V30 2 2 2 3
M  V30 3 1 3 4
M  V30 4 1 4 5
M  V30 5 2 4 6
M  V30 6 1 6 7
M  V30 7 1 7 8
M  V30 8 1 8 9
M  V30 9 1 9 10
M  V30 10 1 10 11
M  V30 11 1 11 12
M  V30 12 1 12 13
M  V30 13 1 13 14
M  V30 14 2 14 15
M  V30 15 1 15 16
M  V30 16 2 16 17
M  V30 17 1 17 18
M  V30 18 1 17 19
M  V30 19 2 19 20
M  V30 20 1 20 21
M  V30 21 1 6 22
M  V30 22 2 22 23
M  V30 23 1 23 2
M  V30 24 1 20 14
M  V30 25 1 1 24
M  V30 26 1 1 25
M  V30 27 1 3 26
M  V30 28 1 8 27
M  V30 29 1 8 28
M  V30 30 1 9 29
M  V30 31 1 9 30
M  V30 32 1 10 31
M  V30 33 1 10 32
M  V30 34 1 11 33
M  V30 35 1 11 34
M  V30 36 1 12 35
M  V30 37 1 12 36
M  V30 38 1 15 37
M  V30 39 1 16 38
M  V30 40 1 18 39
M  V30 41 1 18 40
M  V30 42 1 19 41
M  V30 43 1 22 42
M  V30 44 1 23 43
M  V30 END BOND
M  V30 END CTAB
M  END
