
     RDKit          3D

  0  0  0  0  0  0  0  0  0  0999 V3000
M  V30 BEGIN CTAB
M  V30 COUNTS 35 37 0 0 0
M  V30 BEGIN ATOM
M  V30 1 N -7.71833 0.948933 -0.578143 0
M  V30 2 C -6.6402 0.53212 -0.537256 0
M  V30 3 C -5.27035 0.0301115 -0.480963 0
M  V30 4 C -4.22412 0.884995 -0.230558 0
M  V30 5 C -2.9167 0.374157 -0.182167 0
M  V30 6 C -2.81956 -0.97057 -0.397472 0
M  V30 7 N -3.86787 -1.79502 -0.64299 0
M  V30 8 C -5.14829 -1.32223 -0.69499 0
M  V30 9 N -6.24991 -2.15054 -0.946606 0
M  V30 10 S -1.1384 -1.24977 -0.27198 0
M  V30 11 C -0.62001 0.334215 0.0464724 0
M  V30 12 C -1.77829 1.05528 0.048577 0
M  V30 13 N -1.68383 2.48354 0.297516 0
M  V30 14 C 0.781942 0.77001 0.26312 0
M  V30 15 O 1.00214 1.98917 0.48989 0
M  V30 16 N 1.77711 -0.191508 0.204043 0
M  V30 17 C 3.14803 0.00736368 0.384155 0
M  V30 18 C 3.73632 1.12202 0.925286 0
M  V30 19 C 5.11854 1.25142 1.05332 0
M  V30 20 C 5.93405 0.249006 0.634077 0
M  V30 21 C 5.39031 -0.88813 0.0854872 0
M  V30 22 C 4.04659 -0.997322 -0.0316913 0
M  V30 23 N 6.25716 -1.93806 -0.35268 0 CHG=1
M  V30 24 O 7.47118 -1.7943 -0.226151 0
M  V30 25 O 5.78017 -3.0943 -0.90669 0 CHG=-1
M  V30 26 H -4.4617 1.92281 -0.0810425 0
M  V30 27 H -6.21322 -2.98735 -1.58257 0
M  V30 28 H -7.15586 -1.95013 -0.496353 0
M  V30 29 H -1.98572 2.93404 1.15634 0
M  V30 30 H -1.27771 3.04704 -0.472 0
M  V30 31 H 1.46801 -1.19141 0.00353081 0
M  V30 32 H 3.11452 1.94249 1.28501 0
M  V30 33 H 5.52962 2.15859 1.48985 0
M  V30 34 H 7.00235 0.393423 0.753406 0
M  V30 35 H 3.61201 -1.91008 -0.472799 0
M  V30 END ATOM
M  V30 BEGIN BOND
M  V30 1 3 1 2
M  V30 2 1 2 3
M  V30 3 2 3 4
M  V30 4 1 4 5
M  V30 5 2 5 6
M  V30 6 1 6 7
M  V30 7 2 7 8
M  V30 8 1 8 9
M  V30 9 1 6 10
M  V30 10 1 10 11
M  V30 11 2 11 12
M  V30 12 1 12 13
M  V30 13 1 11 14
M  V30 14 2 14 15
M  V30 15 1 14 16
M  V30 16 1 16 17
M  V30 17 2 17 18
M  V30 18 1 18 19
M  V30 19 2 19 20
M  V30 20 1 20 21
M  V30 21 2 21 22
M  V30 22 1 21 23
M  V30 23 2 23 24
M  V30 24 1 23 25
M  V30 25 1 8 3
M  V30 26 1 22 17
M  V30 27 1 12 5
M  V30 28 1 4 26
M  V30 29 1 9 27
M  V30 30 1 9 28
M  V30 31 1 13 29
M  V30 32 1 13 30
M  V30 33 1 16 31
M  V30 34 1 18 32
M  V30 35 1 19 33
M  V30 36 1 20 34
M  V30 37 1 22 35
M  V30 END BOND
M  V30 END CTAB
M  END
