
     RDKit          3D

  0  0  0  0  0  0  0  0  0  0999 V3000
M  V30 BEGIN CTAB
M  V30 COUNTS 33 33 0 0 0
M  V30 BEGIN ATOM
M  V30 1 N -0.422365 -1.27405 1.61382 0
M  V30 2 C -0.448163 -0.791973 0.221355 0
M  V30 3 C -1.69159 0.0746791 0.191817 0
M  V30 4 C -1.95075 1.00254 1.21705 0
M  V30 5 N -3.17505 1.63649 1.19306 0
M  V30 6 C -4.11892 1.45459 0.297317 0
M  V30 7 C -3.89566 0.534252 -0.753208 0
M  V30 8 C -2.67304 -0.127151 -0.757437 0
M  V30 9 N -2.3872 -1.03448 -1.82078 0
M  V30 10 C 0.640458 0.143558 -0.0701861 0
M  V30 11 C 2.05449 -0.122092 0.014826 0
M  V30 12 C 2.69704 -1.23262 -0.685513 0
M  V30 13 C 2.67064 0.128784 1.35487 0
M  V30 14 C 2.66298 1.17787 -0.781646 0
M  V30 15 H 0.0594654 -0.504092 2.12884 0
M  V30 16 H -0.100699 -2.20377 1.75404 0
M  V30 17 H -0.656823 -1.59819 -0.486947 0
M  V30 18 H -1.21526 1.16202 1.94696 0
M  V30 19 H -5.08909 1.98532 0.285042 0
M  V30 20 H -4.67538 0.401453 -1.47619 0
M  V30 21 H -2.20027 -0.704723 -2.76912 0
M  V30 22 H -2.363 -2.03446 -1.5912 0
M  V30 23 H 0.372733 1.11497 0.463755 0
M  V30 24 H 0.404941 0.482821 -1.17227 0
M  V30 25 H 3.13516 -1.95595 0.0173714 0
M  V30 26 H 2.07529 -1.77451 -1.42222 0
M  V30 27 H 3.57605 -0.871933 -1.28407 0
M  V30 28 H 3.80718 0.160848 1.23712 0
M  V30 29 H 2.32982 1.15555 1.69783 0
M  V30 30 H 2.41007 -0.597688 2.15563 0
M  V30 31 H 2.2566 1.10262 -1.79976 0
M  V30 32 H 3.72901 1.09082 -0.664264 0
M  V30 33 H 2.18135 2.01851 -0.255914 0
M  V30 END ATOM
M  V30 BEGIN BOND
M  V30 1 1 1 2
M  V30 2 1 2 3
M  V30 3 2 3 4
M  V30 4 1 4 5
M  V30 5 2 5 6
M  V30 6 1 6 7
M  V30 7 2 7 8
M  V30 8 1 8 9
M  V30 9 1 2 10
M  V30 10 1 10 11
M  V30 11 1 11 12
M  V30 12 1 11 13
M  V30 13 1 11 14
M  V30 14 1 8 3
M  V30 15 1 1 15
M  V30 16 1 1 16
M  V30 17 1 2 17
M  V30 18 1 4 18
M  V30 19 1 6 19
M  V30 20 1 7 20
M  V30 21 1 9 21
M  V30 22 1 9 22
M  V30 23 1 10 23
M  V30 24 1 10 24
M  V30 25 1 12 25
M  V30 26 1 12 26
M  V30 27 1 12 27
M  V30 28 1 13 28
M  V30 29 1 13 29
M  V30 30 1 13 30
M  V30 31 1 14 31
M  V30 32 1 14 32
M  V30 33 1 14 33
M  V30 END BOND
M  V30 END CTAB
M  END
