
     RDKit          3D

  0  0  0  0  0  0  0  0  0  0999 V3000
M  V30 BEGIN CTAB
M  V30 COUNTS 24 25 0 0 0
M  V30 BEGIN ATOM
M  V30 1 N -0.550916 3.04868 -0.262137 0
M  V30 2 C -0.825753 1.65252 -0.209456 0
M  V30 3 C -2.07543 1.1296 -0.424965 0
M  V30 4 C -2.32038 -0.222989 -0.369559 0
M  V30 5 C -1.31476 -1.13988 -0.0916439 0
M  V30 6 C -0.0513666 -0.597762 0.125184 0
M  V30 7 C 0.185266 0.757311 0.0678694 0
M  V30 8 C 1.59463 1.19374 0.32262 0
M  V30 9 O 2.40883 0.353975 -0.401444 0
M  V30 10 C 2.37198 -0.957453 -0.0606051 0
M  V30 11 C 1.07029 -1.4878 0.42506 0
M  V30 12 N -1.55381 -2.52944 -0.0321401 0
M  V30 13 H 0.291134 3.41373 -0.707988 0
M  V30 14 H -1.22085 3.72407 0.162817 0
M  V30 15 H -2.88698 1.80602 -0.644278 0
M  V30 16 H -3.30259 -0.653629 -0.537414 0
M  V30 17 H 1.78346 2.22504 0.0148321 0
M  V30 18 H 1.83634 1.12643 1.41457 0
M  V30 19 H 3.19306 -1.15441 0.673356 0
M  V30 20 H 2.66667 -1.55731 -0.970786 0
M  V30 21 H 0.842891 -2.49838 -0.017804 0
M  V30 22 H 1.1379 -1.57199 1.54384 0
M  V30 23 H -1.79535 -3.04196 -0.888738 0
M  V30 24 H -1.48427 -3.01814 0.868808 0
M  V30 END ATOM
M  V30 BEGIN BOND
M  V30 1 1 1 2
M  V30 2 2 2 3
M  V30 3 1 3 4
M  V30 4 2 4 5
M  V30 5 1 5 6
M  V30 6 2 6 7
M  V30 7 1 7 8
M  V30 8 1 8 9
M  V30 9 1 9 10
M  V30 10 1 10 11
M  V30 11 1 5 12
M  V30 12 1 7 2
M  V30 13 1 11 6
M  V30 14 1 1 13
M  V30 15 1 1 14
M  V30 16 1 3 15
M  V30 17 1 4 16
M  V30 18 1 8 17
M  V30 19 1 8 18
M  V30 20 1 10 19
M  V30 21 1 10 20
M  V30 22 1 11 21
M  V30 23 1 11 22
M  V30 24 1 12 23
M  V30 25 1 12 24
M  V30 END BOND
M  V30 END CTAB
M  END
