
     RDKit          3D

  0  0  0  0  0  0  0  0  0  0999 V3000
M  V30 BEGIN CTAB
M  V30 COUNTS 33 34 0 0 0
M  V30 BEGIN ATOM
M  V30 1 N 1.98728 2.24475 -0.896933 0
M  V30 2 C 1.62427 1.79825 0.395349 0
M  V30 3 C 2.04693 0.405612 0.679813 0
M  V30 4 N 1.51089 -0.625029 -0.170414 0
M  V30 5 C 2.28638 -1.84048 0.244018 0
M  V30 6 C 1.4509 -3.01358 -0.151059 0
M  V30 7 C 0.106103 -2.41819 -0.459763 0
M  V30 8 C 0.202499 -1.07118 0.282523 0 CFG=2
M  V30 9 C -0.923937 -0.215672 -0.0266753 0
M  V30 10 C -1.80942 0.101481 1.01314 0
M  V30 11 C -2.90725 0.900504 0.79116 0
M  V30 12 C -3.17468 1.42027 -0.474969 0
M  V30 13 N -2.31089 1.10116 -1.45357 0
M  V30 14 C -1.22123 0.315817 -1.25981 0
M  V30 15 N -4.31773 2.2402 -0.66764 0
M  V30 16 H 2.86528 2.02834 -1.25889 0
M  V30 17 H 1.58949 3.10391 -1.18775 0
M  V30 18 H 0.5841 2.05624 0.565461 0
M  V30 19 H 2.21446 2.45808 1.11252 0
M  V30 20 H 1.8286 0.101526 1.74737 0
M  V30 21 H 3.17183 0.343575 0.579496 0
M  V30 22 H 3.2935 -1.8259 -0.176116 0
M  V30 23 H 2.37477 -1.79409 1.35086 0
M  V30 24 H 1.32379 -3.73817 0.680403 0
M  V30 25 H 1.8481 -3.5856 -0.997674 0
M  V30 26 H 0.0385397 -2.19255 -1.54583 0
M  V30 27 H -0.747152 -3.01533 -0.0816843 0
M  V30 28 H 0.302116 -1.33421 1.35215 0
M  V30 29 H -1.61296 -0.291633 1.99083 0
M  V30 30 H -3.60154 1.15285 1.58416 0
M  V30 31 H -0.539437 0.0779621 -2.07768 0
M  V30 32 H -4.20256 3.25411 -0.848488 0
M  V30 33 H -5.28104 1.85697 -0.634321 0
M  V30 END ATOM
M  V30 BEGIN BOND
M  V30 1 1 1 2
M  V30 2 1 2 3
M  V30 3 1 3 4
M  V30 4 1 4 5
M  V30 5 1 5 6
M  V30 6 1 6 7
M  V30 7 1 7 8
M  V30 8 1 8 9
M  V30 9 2 9 10
M  V30 10 1 10 11
M  V30 11 2 11 12
M  V30 12 1 12 13
M  V30 13 2 13 14
M  V30 14 1 12 15
M  V30 15 1 8 4
M  V30 16 1 14 9
M  V30 17 1 1 16
M  V30 18 1 1 17
M  V30 19 1 2 18
M  V30 20 1 2 19
M  V30 21 1 3 20
M  V30 22 1 3 21
M  V30 23 1 5 22
M  V30 24 1 5 23
M  V30 25 1 6 24
M  V30 26 1 6 25
M  V30 27 1 7 26
M  V30 28 1 7 27
M  V30 29 1 8 28 CFG=1
M  V30 30 1 10 29
M  V30 31 1 11 30
M  V30 32 1 14 31
M  V30 33 1 15 32
M  V30 34 1 15 33
M  V30 END BOND
M  V30 END CTAB
M  END
