
     RDKit          3D

  0  0  0  0  0  0  0  0  0  0999 V3000
M  V30 BEGIN CTAB
M  V30 COUNTS 51 55 0 0 0
M  V30 BEGIN ATOM
M  V30 1 N -8.64753 0.574624 -1.31411 0
M  V30 2 C -7.57126 0.668696 -0.361979 0
M  V30 3 C -6.23775 0.645573 -1.05354 0
M  V30 4 O -6.22717 0.552539 -2.30761 0
M  V30 5 N -5.03384 0.72653 -0.30705 0
M  V30 6 C -3.77523 0.700259 -1.02674 0
M  V30 7 C -2.7295 1.24959 -0.0599046 0
M  V30 8 N -2.70224 0.34964 1.07594 0
M  V30 9 C -3.94244 0.130107 1.80209 0
M  V30 10 C -5.0811 0.832319 1.14068 0
M  V30 11 C -1.48959 -0.270319 1.42901 0
M  V30 12 N -0.38562 -0.0225165 0.71166 0
M  V30 13 C 0.793304 -0.593357 1.01509 0
M  V30 14 C 0.929788 -1.46203 2.07761 0
M  V30 15 C 2.14526 -2.02915 2.3631 0
M  V30 16 C 3.25321 -1.73596 1.58625 0
M  V30 17 C 3.16383 -0.870266 0.510415 0
M  V30 18 C 1.93338 -0.318764 0.250378 0
M  V30 19 C 4.31973 -0.54667 -0.322853 0
M  V30 20 C 4.14255 -0.255911 -1.66001 0
M  V30 21 C 5.17154 0.0552152 -2.50298 0
M  V30 22 C 6.46132 0.0755668 -1.96864 0
M  V30 23 O 7.59853 0.334378 -2.53453 0
M  V30 24 C 8.56463 0.239473 -1.66014 0
M  V30 25 N 9.94194 0.453855 -1.9195 0
M  V30 26 N 7.99943 -0.101379 -0.46523 0
M  V30 27 C 6.68974 -0.208628 -0.635036 0
M  V30 28 C 5.59928 -0.519328 0.176629 0
M  V30 29 N -0.184625 -1.70599 2.79375 0
M  V30 30 C -1.36945 -1.141 2.49998 0
M  V30 31 H -8.24944 0.653146 -2.27515 0
M  V30 32 H -9.34221 1.36006 -1.2098 0
M  V30 33 H -7.62775 1.60883 0.209545 0
M  V30 34 H -7.60788 -0.176365 0.363172 0
M  V30 35 H -3.49308 -0.370012 -1.20596 0
M  V30 36 H -3.81539 1.26986 -1.96808 0
M  V30 37 H -1.77267 1.30463 -0.583423 0
M  V30 38 H -3.05835 2.25461 0.31134 0
M  V30 39 H -4.15916 -0.964798 1.80982 0
M  V30 40 H -3.87261 0.447619 2.85491 0
M  V30 41 H -5.07612 1.90773 1.46437 0
M  V30 42 H -6.03807 0.419942 1.52 0
M  V30 43 H 2.20472 -2.71022 3.21348 0
M  V30 44 H 4.1982 -2.18276 1.81592 0
M  V30 45 H 1.81724 0.362621 -0.579776 0
M  V30 46 H 3.13295 -0.266032 -2.10325 0
M  V30 47 H 4.98247 0.273639 -3.53462 0
M  V30 48 H 10.4451 -0.0463079 -2.67392 0
M  V30 49 H 10.4625 1.13406 -1.33428 0
M  V30 50 H 5.79564 -0.741439 1.22807 0
M  V30 51 H -2.25625 -1.34591 3.08358 0
M  V30 END ATOM
M  V30 BEGIN BOND
M  V30 1 1 1 2
M  V30 2 1 2 3
M  V30 3 2 3 4
M  V30 4 1 3 5
M  V30 5 1 5 6
M  V30 6 1 6 7
M  V30 7 1 7 8
M  V30 8 1 8 9
M  V30 9 1 9 10
M  V30 10 1 8 11
M  V30 11 2 11 12
M  V30 12 1 12 13
M  V30 13 2 13 14
M  V30 14 1 14 15
M  V30 15 2 15 16
M  V30 16 1 16 17
M  V30 17 2 17 18
M  V30 18 1 17 19
M  V30 19 2 19 20
M  V30 20 1 20 21
M  V30 21 2 21 22
M  V30 22 1 22 23
M  V30 23 1 23 24
M  V30 24 1 24 25
M  V30 25 2 24 26
M  V30 26 1 26 27
M  V30 27 2 27 28
M  V30 28 1 14 29
M  V30 29 2 29 30
M  V30 30 1 10 5
M  V30 31 1 30 11
M  V30 32 1 18 13
M  V30 33 1 28 19
M  V30 34 1 27 22
M  V30 35 1 1 31
M  V30 36 1 1 32
M  V30 37 1 2 33
M  V30 38 1 2 34
M  V30 39 1 6 35
M  V30 40 1 6 36
M  V30 41 1 7 37
M  V30 42 1 7 38
M  V30 43 1 9 39
M  V30 44 1 9 40
M  V30 45 1 10 41
M  V30 46 1 10 42
M  V30 47 1 15 43
M  V30 48 1 16 44
M  V30 49 1 18 45
M  V30 50 1 20 46
M  V30 51 1 21 47
M  V30 52 1 25 48
M  V30 53 1 25 49
M  V30 54 1 28 50
M  V30 55 1 30 51
M  V30 END BOND
M  V30 END CTAB
M  END
