
     RDKit          3D

  0  0  0  0  0  0  0  0  0  0999 V3000
M  V30 BEGIN CTAB
M  V30 COUNTS 28 29 0 0 0
M  V30 BEGIN ATOM
M  V30 1 N 2.43043 -2.85205 -1.81703 0
M  V30 2 C 2.38095 -1.55764 -1.21443 0
M  V30 3 C 1.15939 -1.05374 -0.77213 0
M  V30 4 C 1.17187 0.191037 -0.202992 0
M  V30 5 O 0.000189323 0.738845 0.250842 0
M  V30 6 C -1.27802 0.219263 0.233149 0
M  V30 7 C -2.15284 1.23228 -0.523117 0
M  V30 8 C -3.53267 0.738683 -0.152084 0
M  V30 9 C -3.38866 0.60286 1.36802 0
M  V30 10 C -1.94974 0.269815 1.60266 0
M  V30 11 N 2.32899 0.867228 -0.0925496 0
M  V30 12 C 3.50536 0.393295 -0.513285 0
M  V30 13 N 3.51408 -0.846199 -1.08366 0
M  V30 14 N 4.7251 1.10603 -0.396889 0
M  V30 15 H 3.23305 -3.14626 -2.38017 0
M  V30 16 H 1.64169 -3.51758 -1.68837 0
M  V30 17 H 0.294648 -1.68041 -0.910358 0
M  V30 18 H -1.34553 -0.774528 -0.211476 0
M  V30 19 H -1.9812 2.20157 -0.0574154 0
M  V30 20 H -1.96418 1.18986 -1.60792 0
M  V30 21 H -4.33854 1.41148 -0.438113 0
M  V30 22 H -3.70172 -0.246792 -0.609393 0
M  V30 23 H -3.61528 1.59854 1.83153 0
M  V30 24 H -4.10085 -0.116375 1.78683 0
M  V30 25 H -1.91289 -0.725409 2.09937 0
M  V30 26 H -1.44842 1.00238 2.26352 0
M  V30 27 H 5.45745 0.797695 0.240895 0
M  V30 28 H 4.86733 1.95612 -0.974906 0
M  V30 END ATOM
M  V30 BEGIN BOND
M  V30 1 1 1 2
M  V30 2 2 2 3
M  V30 3 1 3 4
M  V30 4 1 4 5
M  V30 5 1 5 6
M  V30 6 1 6 7
M  V30 7 1 7 8
M  V30 8 1 8 9
M  V30 9 1 9 10
M  V30 10 2 4 11
M  V30 11 1 11 12
M  V30 12 2 12 13
M  V30 13 1 12 14
M  V30 14 1 13 2
M  V30 15 1 10 6
M  V30 16 1 1 15
M  V30 17 1 1 16
M  V30 18 1 3 17
M  V30 19 1 6 18
M  V30 20 1 7 19
M  V30 21 1 7 20
M  V30 22 1 8 21
M  V30 23 1 8 22
M  V30 24 1 9 23
M  V30 25 1 9 24
M  V30 26 1 10 25
M  V30 27 1 10 26
M  V30 28 1 14 27
M  V30 29 1 14 28
M  V30 END BOND
M  V30 END CTAB
M  END
