
     RDKit          3D

  0  0  0  0  0  0  0  0  0  0999 V3000
M  V30 BEGIN CTAB
M  V30 COUNTS 25 26 0 0 0
M  V30 BEGIN ATOM
M  V30 1 Cl 6.00393 -0.21928 -0.766418 0
M  V30 2 C 4.29833 -0.137063 -0.30531 0
M  V30 3 C 3.52291 0.85066 -0.874549 0
M  V30 4 C 2.17246 0.935166 -0.525354 0
M  V30 5 C 1.60334 0.0583825 0.36958 0
M  V30 6 C 2.4035 -0.913568 0.918231 0
M  V30 7 C 3.75448 -1.0264 0.592087 0
M  V30 8 Cl 1.7086 -2.03495 2.0526 0
M  V30 9 N 0.22916 0.162924 0.7097 0
M  V30 10 N -0.611392 0.064557 -0.224185 0
M  V30 11 C -2.00016 0.139986 -0.0930509 0
M  V30 12 C -2.74749 1.23601 0.247847 0
M  V30 13 N -2.30779 2.55192 0.549515 0
M  V30 14 N -4.03112 0.814955 0.24335 0
M  V30 15 N -4.13966 -0.448862 -0.0716183 0
M  V30 16 C -2.88385 -0.892361 -0.286325 0
M  V30 17 N -2.59449 -2.24084 -0.654997 0
M  V30 18 H 3.90265 1.57608 -1.58675 0
M  V30 19 H 1.55177 1.70475 -0.963779 0
M  V30 20 H 4.38852 -1.78034 1.01353 0
M  V30 21 H -2.98256 3.30782 0.684568 0
M  V30 22 H -1.29939 2.77159 0.638433 0
M  V30 23 H -5.01987 -1.00843 -0.144066 0
M  V30 24 H -1.85115 -2.72674 -0.108075 0
M  V30 25 H -3.07072 -2.74597 -1.41495 0
M  V30 END ATOM
M  V30 BEGIN BOND
M  V30 1 1 1 2
M  V30 2 2 2 3
M  V30 3 1 3 4
M  V30 4 2 4 5
M  V30 5 1 5 6
M  V30 6 2 6 7
M  V30 7 1 6 8
M  V30 8 1 5 9
M  V30 9 2 9 10
M  V30 10 1 10 11
M  V30 11 1 11 12
M  V30 12 1 12 13
M  V30 13 2 12 14
M  V30 14 1 14 15
M  V30 15 1 15 16
M  V30 16 1 16 17
M  V30 17 1 7 2
M  V30 18 2 16 11
M  V30 19 1 3 18
M  V30 20 1 4 19
M  V30 21 1 7 20
M  V30 22 1 13 21
M  V30 23 1 13 22
M  V30 24 1 15 23
M  V30 25 1 17 24
M  V30 26 1 17 25
M  V30 END BOND
M  V30 END CTAB
M  END
