
     RDKit          3D

  0  0  0  0  0  0  0  0  0  0999 V3000
M  V30 BEGIN CTAB
M  V30 COUNTS 24 24 0 0 0
M  V30 BEGIN ATOM
M  V30 1 N -3.54875 -0.861061 -0.0870459 0
M  V30 2 C -2.69516 -0.514595 1.05998 0
M  V30 3 C -1.34529 -0.0871345 0.594379 0
M  V30 4 C -1.09538 1.24249 0.317956 0
M  V30 5 C 0.167794 1.65074 -0.119019 0
M  V30 6 N 0.400802 3.02664 -0.397454 0
M  V30 7 C 1.1774 0.718553 -0.276836 0
M  V30 8 C 0.948239 -0.612448 -0.0063567 0
M  V30 9 C -0.319308 -0.994612 0.427945 0
M  V30 10 C 1.98414 -1.61978 -0.160577 0
M  V30 11 O 1.80901 -2.83608 0.076455 0
M  V30 12 C 3.31783 -1.17576 -0.624002 0
M  V30 13 H -3.63143 -0.0789841 -0.758267 0
M  V30 14 H -3.03132 -1.64095 -0.573136 0
M  V30 15 H -2.56561 -1.44334 1.63263 0
M  V30 16 H -3.13429 0.316622 1.64398 0
M  V30 17 H -1.91005 1.94877 0.452287 0
M  V30 18 H 1.33803 3.4305 -0.245022 0
M  V30 19 H -0.361031 3.64273 -0.755573 0
M  V30 20 H 2.15073 1.02106 -0.611706 0
M  V30 21 H -0.543859 -2.03072 0.652184 0
M  V30 22 H 3.72591 -0.453183 0.0997369 0
M  V30 23 H 4.00354 -2.03304 -0.771015 0
M  V30 24 H 3.15805 -0.616411 -1.57152 0
M  V30 END ATOM
M  V30 BEGIN BOND
M  V30 1 1 1 2
M  V30 2 1 2 3
M  V30 3 2 3 4
M  V30 4 1 4 5
M  V30 5 1 5 6
M  V30 6 2 5 7
M  V30 7 1 7 8
M  V30 8 2 8 9
M  V30 9 1 8 10
M  V30 10 2 10 11
M  V30 11 1 10 12
M  V30 12 1 9 3
M  V30 13 1 1 13
M  V30 14 1 1 14
M  V30 15 1 2 15
M  V30 16 1 2 16
M  V30 17 1 4 17
M  V30 18 1 6 18
M  V30 19 1 6 19
M  V30 20 1 7 20
M  V30 21 1 9 21
M  V30 22 1 12 22
M  V30 23 1 12 23
M  V30 24 1 12 24
M  V30 END BOND
M  V30 END CTAB
M  END
