
     RDKit          3D

  0  0  0  0  0  0  0  0  0  0999 V3000
M  V30 BEGIN CTAB
M  V30 COUNTS 17 17 0 0 0
M  V30 BEGIN ATOM
M  V30 1 N 3.04223 -1.34991 -0.168873 0
M  V30 2 C 1.95623 -0.448439 -0.0141986 0
M  V30 3 N 2.22273 0.839428 0.287748 0
M  V30 4 C 1.21265 1.71786 0.440619 0
M  V30 5 C -0.108577 1.31644 0.291365 0
M  V30 6 C -0.372224 -0.00524203 -0.0180689 0
M  V30 7 N 0.672289 -0.820369 -0.155151 0
M  V30 8 C -1.74198 -0.486523 -0.187475 0
M  V30 9 N -1.93711 -1.7239 -0.47486 0
M  V30 10 N -2.85985 0.347958 -0.0493206 0
M  V30 11 H 3.80174 -1.41356 0.538137 0
M  V30 12 H 3.06475 -1.95468 -1.01496 0
M  V30 13 H 1.39253 2.77229 0.686113 0
M  V30 14 H -0.922805 2.02411 0.414514 0
M  V30 15 H -2.85813 -2.15994 -0.614094 0
M  V30 16 H -2.96258 0.905919 0.840608 0
M  V30 17 H -3.60189 0.438555 -0.8021 0
M  V30 END ATOM
M  V30 BEGIN BOND
M  V30 1 1 1 2
M  V30 2 2 2 3
M  V30 3 1 3 4
M  V30 4 2 4 5
M  V30 5 1 5 6
M  V30 6 2 6 7
M  V30 7 1 6 8
M  V30 8 2 8 9 CFG=2
M  V30 9 1 8 10
M  V30 10 1 7 2
M  V30 11 1 1 11
M  V30 12 1 1 12
M  V30 13 1 4 13
M  V30 14 1 5 14
M  V30 15 1 9 15
M  V30 16 1 10 16
M  V30 17 1 10 17
M  V30 END BOND
M  V30 END CTAB
M  END
