
     RDKit          3D

  0  0  0  0  0  0  0  0  0  0999 V3000
M  V30 BEGIN CTAB
M  V30 COUNTS 21 22 0 0 0
M  V30 BEGIN ATOM
M  V30 1 N 3.09812 -0.56056 -0.611904 0
M  V30 2 C 2.29075 -0.559832 0.591259 0
M  V30 3 C 1.04726 0.23638 0.416518 0
M  V30 4 C 0.989599 1.58357 0.703667 0
M  V30 5 C -0.150934 2.33277 0.54767 0
M  V30 6 N -1.26758 1.73938 0.095941 0
M  V30 7 C -1.2148 0.418685 -0.186628 0
M  V30 8 N -0.100374 -0.32171 -0.0360838 0
M  V30 9 N -0.350403 -1.5704 -0.388672 0
M  V30 10 C -1.63214 -1.68725 -0.780041 0
M  V30 11 C -2.19275 -0.450233 -0.660952 0
M  V30 12 N -3.53587 -0.131076 -0.971556 0
M  V30 13 H 2.52395 -0.841088 -1.45553 0
M  V30 14 H 3.891 -1.21092 -0.441854 0
M  V30 15 H 2.91702 -0.131025 1.40318 0
M  V30 16 H 2.00997 -1.59691 0.897039 0
M  V30 17 H 1.92279 2.0274 1.06945 0
M  V30 18 H -0.120099 3.38096 0.79264 0
M  V30 19 H -2.0509 -2.62589 -1.11082 0
M  V30 20 H -3.79084 0.314944 -1.86983 0
M  V30 21 H -4.28378 -0.347196 -0.286914 0
M  V30 END ATOM
M  V30 BEGIN BOND
M  V30 1 1 1 2
M  V30 2 1 2 3
M  V30 3 2 3 4
M  V30 4 1 4 5
M  V30 5 2 5 6
M  V30 6 1 6 7
M  V30 7 1 7 8
M  V30 8 1 8 9
M  V30 9 2 9 10
M  V30 10 1 10 11
M  V30 11 1 11 12
M  V30 12 1 8 3
M  V30 13 2 11 7
M  V30 14 1 1 13
M  V30 15 1 1 14
M  V30 16 1 2 15
M  V30 17 1 2 16
M  V30 18 1 4 17
M  V30 19 1 5 18
M  V30 20 1 10 19
M  V30 21 1 12 20
M  V30 22 1 12 21
M  V30 END BOND
M  V30 END CTAB
M  END
