
     RDKit          3D

  0  0  0  0  0  0  0  0  0  0999 V3000
M  V30 BEGIN CTAB
M  V30 COUNTS 35 36 0 0 0
M  V30 BEGIN ATOM
M  V30 1 N 2.6446 -1.38411 1.15988 0
M  V30 2 C 2.54015 -0.248137 0.292862 0
M  V30 3 C 3.71268 0.363002 -0.0975643 0
M  V30 4 C 3.75734 1.50744 -0.887006 0
M  V30 5 C 2.55738 2.03485 -1.279 0
M  V30 6 C 1.36427 1.4127 -0.881888 0
M  V30 7 C 1.31469 0.283956 -0.105607 0
M  V30 8 C 0.0776594 -0.451822 0.156705 0 CFG=1
M  V30 9 C -0.362666 -0.466633 1.61022 0
M  V30 10 O -1.69791 -0.811967 1.63282 0
M  V30 11 C -1.89037 -2.07715 1.03722 0
M  V30 12 C -2.57131 -1.85785 -0.294326 0
M  V30 13 C -1.81865 -1.004 -1.25132 0
M  V30 14 N -1.04847 0.0446484 -0.626031 0
M  V30 15 S -1.94963 1.32738 -0.0642764 0
M  V30 16 O -1.43601 1.87813 1.26258 0
M  V30 17 O -3.40721 0.949877 0.144889 0
M  V30 18 N -2.01782 2.75865 -1.06849 0
M  V30 19 H 3.05199 -1.20063 2.10531 0
M  V30 20 H 2.36111 -2.33377 0.919458 0
M  V30 21 H 4.68211 -0.0545213 0.225642 0
M  V30 22 H 4.67525 1.98275 -1.2069 0
M  V30 23 H 2.55113 2.93602 -1.89645 0
M  V30 24 H 0.49718 1.89075 -1.2729 0
M  V30 25 H 0.230801 -1.51131 -0.156668 0
M  V30 26 H -0.0758695 0.347083 2.22554 0
M  V30 27 H 0.126243 -1.38603 2.10557 0
M  V30 28 H -1.00066 -2.68375 1.00731 0
M  V30 29 H -2.63404 -2.66543 1.64536 0
M  V30 30 H -3.55808 -1.40998 -0.0831853 0
M  V30 31 H -2.80377 -2.82017 -0.821733 0
M  V30 32 H -2.56414 -0.453529 -1.88362 0
M  V30 33 H -1.17908 -1.5704 -1.93574 0
M  V30 34 H -1.20573 3.41281 -0.788067 0
M  V30 35 H -2.92316 3.26115 -0.930602 0
M  V30 END ATOM
M  V30 BEGIN BOND
M  V30 1 1 1 2
M  V30 2 2 2 3
M  V30 3 1 3 4
M  V30 4 2 4 5
M  V30 5 1 5 6
M  V30 6 2 6 7
M  V30 7 1 7 8
M  V30 8 1 8 9
M  V30 9 1 9 10
M  V30 10 1 10 11
M  V30 11 1 11 12
M  V30 12 1 12 13
M  V30 13 1 13 14
M  V30 14 1 14 15
M  V30 15 2 15 16
M  V30 16 2 15 17
M  V30 17 1 15 18
M  V30 18 1 7 2
M  V30 19 1 14 8
M  V30 20 1 1 19
M  V30 21 1 1 20
M  V30 22 1 3 21
M  V30 23 1 4 22
M  V30 24 1 5 23
M  V30 25 1 6 24
M  V30 26 1 8 25 CFG=3
M  V30 27 1 9 26
M  V30 28 1 9 27
M  V30 29 1 11 28
M  V30 30 1 11 29
M  V30 31 1 12 30
M  V30 32 1 12 31
M  V30 33 1 13 32
M  V30 34 1 13 33
M  V30 35 1 18 34
M  V30 36 1 18 35
M  V30 END BOND
M  V30 END CTAB
M  END
