
     RDKit          3D

  0  0  0  0  0  0  0  0  0  0999 V3000
M  V30 BEGIN CTAB
M  V30 COUNTS 22 22 0 0 0
M  V30 BEGIN ATOM
M  V30 1 N -3.14171 -1.72627 0.730543 0
M  V30 2 N -1.84668 -1.28967 0.580893 0
M  V30 3 C -1.47628 -0.214519 0.0186285 0
M  V30 4 C -0.0696778 0.154263 -0.0862819 0
M  V30 5 C 0.301949 1.33026 -0.70345 0
M  V30 6 C 1.63112 1.68037 -0.803496 0
M  V30 7 C 2.63531 0.897583 -0.30672 0
M  V30 8 C 2.2432 -0.291112 0.315986 0
M  V30 9 C 0.933521 -0.658141 0.426614 0
M  V30 10 N 3.27789 -1.10524 0.831986 0
M  V30 11 Cl 4.33019 1.31475 -0.418308 0
M  V30 12 C -2.50107 0.692725 -0.547826 0
M  V30 13 H -3.44856 -2.56785 0.178129 0
M  V30 14 H -3.84691 -1.26092 1.37197 0
M  V30 15 H -0.496655 1.96579 -1.10561 0
M  V30 16 H 1.9015 2.60979 -1.29286 0
M  V30 17 H 0.62305 -1.57101 0.904174 0
M  V30 18 H 3.43447 -1.10362 1.85483 0
M  V30 19 H 3.87827 -1.69613 0.234423 0
M  V30 20 H -2.62854 1.62462 0.0594261 0
M  V30 21 H -3.49141 0.185929 -0.6556 0
M  V30 22 H -2.24297 1.0284 -1.58746 0
M  V30 END ATOM
M  V30 BEGIN BOND
M  V30 1 1 1 2
M  V30 2 2 2 3 CFG=2
M  V30 3 1 3 4
M  V30 4 2 4 5
M  V30 5 1 5 6
M  V30 6 2 6 7
M  V30 7 1 7 8
M  V30 8 2 8 9
M  V30 9 1 8 10
M  V30 10 1 7 11
M  V30 11 1 3 12
M  V30 12 1 9 4
M  V30 13 1 1 13
M  V30 14 1 1 14
M  V30 15 1 5 15
M  V30 16 1 6 16
M  V30 17 1 9 17
M  V30 18 1 10 18
M  V30 19 1 10 19
M  V30 20 1 12 20
M  V30 21 1 12 21
M  V30 22 1 12 22
M  V30 END BOND
M  V30 END CTAB
M  END
