
     RDKit          3D

  0  0  0  0  0  0  0  0  0  0999 V3000
M  V30 BEGIN CTAB
M  V30 COUNTS 60 63 0 0 0
M  V30 BEGIN ATOM
M  V30 1 N 8.18853 -3.32321 2.42286 0
M  V30 2 C 8.01501 -2.95206 1.06356 0
M  V30 3 N 8.75417 -3.48215 0.184615 0
M  V30 4 C 6.99441 -1.9708 0.696484 0
M  V30 5 C 6.20537 -1.41405 1.68872 0
M  V30 6 C 5.24515 -0.492139 1.3498 0
M  V30 7 C 5.03934 -0.0995603 0.0428498 0
M  V30 8 O 4.06994 0.823052 -0.249489 0
M  V30 9 C 3.24082 1.41765 0.735558 0
M  V30 10 C 2.29134 2.37046 0.119593 0
M  V30 11 C 1.03195 1.96134 -0.265879 0
M  V30 12 C 0.131632 2.83767 -0.843932 0
M  V30 13 C 0.562298 4.14021 -1.013 0
M  V30 14 C 1.81732 4.55927 -0.631824 0
M  V30 15 C 2.71058 3.68023 -0.0558093 0
M  V30 16 C -1.19377 2.37201 -1.24013 0
M  V30 17 C -2.2869 3.21553 -1.21105 0
M  V30 18 C -3.55202 2.80745 -1.57842 0
M  V30 19 C -3.77947 1.51528 -1.99742 0
M  V30 20 C -2.69939 0.658099 -2.03296 0
M  V30 21 C -2.91309 -0.738568 -2.47934 0
M  V30 22 O -4.19685 -1.20007 -2.31136 0
M  V30 23 C -4.89084 -1.3431 -1.11592 0
M  V30 24 C -6.19209 -1.81892 -1.15831 0
M  V30 25 Br -6.99025 -2.25789 -2.82602 0
M  V30 26 C -6.92314 -1.98101 -0.012032 0
M  V30 27 C -6.408 -1.68168 1.23932 0
M  V30 28 C -5.113 -1.21076 1.25667 0
M  V30 29 C -4.35491 -1.03857 0.115372 0
M  V30 30 C -7.16049 -1.84278 2.47685 0
M  V30 31 N -6.51921 -1.49625 3.70286 0
M  V30 32 N -8.36789 -2.27619 2.54751 0
M  V30 33 C -1.41839 1.07502 -1.66004 0
M  V30 34 C 5.82725 -0.660836 -0.914219 0
M  V30 35 Br 5.57656 -0.146691 -2.72943 0
M  V30 36 C 6.79986 -1.58883 -0.60771 0
M  V30 37 H 7.47633 -3.87327 2.95815 0
M  V30 38 H 9.06106 -3.05033 2.94964 0
M  V30 39 H 8.7663 -3.33336 -0.829369 0
M  V30 40 H 6.36564 -1.72282 2.72442 0
M  V30 41 H 4.61636 -0.0452789 2.1185 0
M  V30 42 H 2.66948 0.608995 1.25054 0
M  V30 43 H 3.86486 1.97859 1.45229 0
M  V30 44 H 0.707901 0.92183 -0.1231 0
M  V30 45 H -0.139284 4.82085 -1.4627 0
M  V30 46 H 2.14662 5.59958 -0.772817 0
M  V30 47 H 3.682 4.02967 0.232993 0
M  V30 48 H -2.11195 4.22926 -0.883143 0
M  V30 49 H -4.40945 3.47594 -1.55368 0
M  V30 50 H -4.75702 1.15492 -2.29402 0
M  V30 51 H -2.6374 -0.864059 -3.56603 0
M  V30 52 H -2.2168 -1.44557 -1.95149 0
M  V30 53 H -7.95949 -2.35884 -0.0357443 0
M  V30 54 H -4.65499 -0.959816 2.20403 0
M  V30 55 H -3.32839 -0.671896 0.166685 0
M  V30 56 H -5.61273 -1.95232 3.92583 0
M  V30 57 H -6.95532 -0.808613 4.34371 0
M  V30 58 H -8.92104 -2.55214 1.7327 0
M  V30 59 H -0.58581 0.396475 -1.69259 0
M  V30 60 H 7.39131 -1.99496 -1.42143 0
M  V30 END ATOM
M  V30 BEGIN BOND
M  V30 1 1 1 2
M  V30 2 2 2 3 CFG=2
M  V30 3 1 2 4
M  V30 4 2 4 5
M  V30 5 1 5 6
M  V30 6 2 6 7
M  V30 7 1 7 8
M  V30 8 1 8 9
M  V30 9 1 9 10
M  V30 10 2 10 11
M  V30 11 1 11 12
M  V30 12 2 12 13
M  V30 13 1 13 14
M  V30 14 2 14 15
M  V30 15 1 12 16
M  V30 16 2 16 17
M  V30 17 1 17 18
M  V30 18 2 18 19
M  V30 19 1 19 20
M  V30 20 1 20 21
M  V30 21 1 21 22
M  V30 22 1 22 23
M  V30 23 2 23 24
M  V30 24 1 24 25
M  V30 25 1 24 26
M  V30 26 2 26 27
M  V30 27 1 27 28
M  V30 28 2 28 29
M  V30 29 1 27 30
M  V30 30 1 30 31
M  V30 31 2 30 32 CFG=2
M  V30 32 2 20 33
M  V30 33 1 7 34
M  V30 34 1 34 35
M  V30 35 2 34 36
M  V30 36 1 36 4
M  V30 37 1 15 10
M  V30 38 1 33 16
M  V30 39 1 29 23
M  V30 40 1 1 37
M  V30 41 1 1 38
M  V30 42 1 3 39
M  V30 43 1 5 40
M  V30 44 1 6 41
M  V30 45 1 9 42
M  V30 46 1 9 43
M  V30 47 1 11 44
M  V30 48 1 13 45
M  V30 49 1 14 46
M  V30 50 1 15 47
M  V30 51 1 17 48
M  V30 52 1 18 49
M  V30 53 1 19 50
M  V30 54 1 21 51
M  V30 55 1 21 52
M  V30 56 1 26 53
M  V30 57 1 28 54
M  V30 58 1 29 55
M  V30 59 1 31 56
M  V30 60 1 31 57
M  V30 61 1 32 58
M  V30 62 1 33 59
M  V30 63 1 36 60
M  V30 END BOND
M  V30 END CTAB
M  END
