
     RDKit          3D

  0  0  0  0  0  0  0  0  0  0999 V3000
M  V30 BEGIN CTAB
M  V30 COUNTS 39 41 0 0 0
M  V30 BEGIN ATOM
M  V30 1 N -6.64681 -0.241697 2.47376 0
M  V30 2 C -6.48018 -0.00237266 1.08892 0
M  V30 3 N -7.50905 0.139306 0.365227 0
M  V30 4 C -5.14569 0.0740285 0.537454 0
M  V30 5 C -4.05142 -0.0906187 1.38722 0
M  V30 6 C -2.78406 -0.0241631 0.898279 0
M  V30 7 C -2.49266 0.203674 -0.431795 0
M  V30 8 C -3.56565 0.36755 -1.27892 0
M  V30 9 C -4.86888 0.301242 -0.787786 0
M  V30 10 C -1.12088 0.269234 -0.924993 0
M  V30 11 C -0.779511 0.494524 -2.24438 0
M  V30 12 C 0.598361 0.477993 -2.26808 0
M  V30 13 C 1.04147 0.247412 -0.985771 0
M  V30 14 O -0.0146132 0.127923 -0.21082 0
M  V30 15 C 2.43909 0.157078 -0.588571 0
M  V30 16 C 3.45488 0.301202 -1.50178 0
M  V30 17 C 4.79431 0.223851 -1.17413 0
M  V30 18 C 5.14527 -0.00923864 0.130944 0
M  V30 19 C 4.14115 -0.16218 1.0937 0
M  V30 20 C 2.82164 -0.0759469 0.713423 0
M  V30 21 C 6.53807 -0.0931815 0.49165 0
M  V30 22 N 6.88518 -0.335261 1.84868 0
M  V30 23 N 7.45527 0.0441702 -0.374462 0
M  V30 24 H -7.3574 0.31578 2.98566 0
M  V30 25 H -6.09634 -0.946315 3.00942 0
M  V30 26 H -7.43619 0.315024 -0.647344 0
M  V30 27 H -4.2573 -0.270683 2.43632 0
M  V30 28 H -1.96534 -0.156914 1.58885 0
M  V30 29 H -3.36016 0.546939 -2.32412 0
M  V30 30 H -5.66044 0.436905 -1.49739 0
M  V30 31 H -1.44934 0.650407 -3.07946 0
M  V30 32 H 1.208 0.622215 -3.1463 0
M  V30 33 H 3.14826 0.486419 -2.53637 0
M  V30 34 H 5.47763 0.357697 -1.99984 0
M  V30 35 H 4.4625 -0.344191 2.10877 0
M  V30 36 H 2.03221 -0.195827 1.46822 0
M  V30 37 H 7.62619 0.210046 2.35078 0
M  V30 38 H 6.41013 -1.07727 2.41164 0
M  V30 39 H 7.36227 0.222232 -1.3866 0
M  V30 END ATOM
M  V30 BEGIN BOND
M  V30 1 1 1 2
M  V30 2 2 2 3 CFG=2
M  V30 3 1 2 4
M  V30 4 2 4 5
M  V30 5 1 5 6
M  V30 6 2 6 7
M  V30 7 1 7 8
M  V30 8 2 8 9
M  V30 9 1 7 10
M  V30 10 2 10 11
M  V30 11 1 11 12
M  V30 12 2 12 13
M  V30 13 1 13 14
M  V30 14 1 13 15
M  V30 15 2 15 16
M  V30 16 1 16 17
M  V30 17 2 17 18
M  V30 18 1 18 19
M  V30 19 2 19 20
M  V30 20 1 18 21
M  V30 21 1 21 22
M  V30 22 2 21 23 CFG=2
M  V30 23 1 9 4
M  V30 24 1 14 10
M  V30 25 1 20 15
M  V30 26 1 1 24
M  V30 27 1 1 25
M  V30 28 1 3 26
M  V30 29 1 5 27
M  V30 30 1 6 28
M  V30 31 1 8 29
M  V30 32 1 9 30
M  V30 33 1 11 31
M  V30 34 1 12 32
M  V30 35 1 16 33
M  V30 36 1 17 34
M  V30 37 1 19 35
M  V30 38 1 20 36
M  V30 39 1 22 37
M  V30 40 1 22 38
M  V30 41 1 23 39
M  V30 END BOND
M  V30 END CTAB
M  END
