
     RDKit          3D

  0  0  0  0  0  0  0  0  0  0999 V3000
M  V30 BEGIN CTAB
M  V30 COUNTS 18 17 0 0 0
M  V30 BEGIN ATOM
M  V30 1 C -0.430799 -1.48044 -0.281141 0
M  V30 2 C -0.311078 0.0100524 -0.165248 0
M  V30 3 C -0.793497 0.402267 1.17895 0
M  V30 4 O -0.221672 -0.0218109 2.21671 0
M  V30 5 O -1.8997 1.25494 1.25143 0
M  V30 6 C 1.10294 0.509343 -0.34887 0
M  V30 7 N 2.02451 -0.0210534 0.611371 0
M  V30 8 N -1.11468 0.61227 -1.20815 0
M  V30 9 H -1.51814 -1.7017 -0.461301 0
M  V30 10 H 0.0984785 -1.89598 -1.16021 0
M  V30 11 H -0.168815 -2.01039 0.66696 0
M  V30 12 H -1.71267 2.22481 1.50247 0
M  V30 13 H 1.43568 0.380571 -1.40686 0
M  V30 14 H 1.05763 1.61445 -0.190388 0
M  V30 15 H 2.9152 0.504773 0.525473 0
M  V30 16 H 2.13078 -1.04622 0.582779 0
M  V30 17 H -2.01981 0.109488 -1.22153 0
M  V30 18 H -0.574369 0.554628 -2.09244 0
M  V30 END ATOM
M  V30 BEGIN BOND
M  V30 1 1 1 2
M  V30 2 1 2 3
M  V30 3 2 3 4
M  V30 4 1 3 5
M  V30 5 1 2 6
M  V30 6 1 6 7
M  V30 7 1 2 8
M  V30 8 1 1 9
M  V30 9 1 1 10
M  V30 10 1 1 11
M  V30 11 1 5 12
M  V30 12 1 6 13
M  V30 13 1 6 14
M  V30 14 1 7 15
M  V30 15 1 7 16
M  V30 16 1 8 17
M  V30 17 1 8 18
M  V30 END BOND
M  V30 END CTAB
M  END
