
     RDKit          3D

  0  0  0  0  0  0  0  0  0  0999 V3000
M  V30 BEGIN CTAB
M  V30 COUNTS 48 50 0 0 0
M  V30 BEGIN ATOM
M  V30 1 O -1.53422 -0.313678 2.26652 0
M  V30 2 C -1.5258 0.0307505 1.06096 0
M  V30 3 C -2.85906 0.378715 0.500156 0
M  V30 4 C -2.70996 1.82373 -0.00555367 0
M  V30 5 C -4.12132 2.21144 -0.402762 0
M  V30 6 C -4.376 1.44745 -1.6839 0
M  V30 7 C -4.32607 -0.0363558 -1.51011 0
M  V30 8 C -3.39452 -0.558304 -0.491363 0
M  V30 9 C -4.12192 -1.68087 0.274171 0
M  V30 10 N -2.33922 -1.29625 -1.21424 0
M  V30 11 N -0.342377 0.0688749 0.346718 0
M  V30 12 C 0.938625 -0.249206 0.804037 0
M  V30 13 C 1.27175 -0.938437 1.94532 0
M  V30 14 C 2.60546 -1.17774 2.31555 0
M  V30 15 C 3.65732 -0.733126 1.55111 0
M  V30 16 C 3.34623 -0.042318 0.405304 0
M  V30 17 C 2.04014 0.191963 0.0434328 0
M  V30 18 N 4.59138 0.3189 -0.225498 0
M  V30 19 C 5.66333 0.185086 0.740779 0
M  V30 20 C 5.12992 -0.846514 1.71149 0
M  V30 21 S 4.6703 0.81845 -1.88163 0
M  V30 22 O 3.78792 2.00482 -2.13238 0
M  V30 23 O 6.06737 1.22287 -2.25669 0
M  V30 24 N 4.12181 -0.464089 -2.87527 0
M  V30 25 H -3.54806 0.476025 1.35752 0
M  V30 26 H -2.34545 2.42553 0.839102 0
M  V30 27 H -2.02886 1.77512 -0.864941 0
M  V30 28 H -4.1622 3.28162 -0.633868 0
M  V30 29 H -4.82626 1.90895 0.401958 0
M  V30 30 H -5.35666 1.80037 -2.06646 0
M  V30 31 H -3.61919 1.80682 -2.41323 0
M  V30 32 H -5.39195 -0.353702 -1.29495 0
M  V30 33 H -4.13941 -0.470689 -2.53638 0
M  V30 34 H -4.77534 -1.25482 1.05761 0
M  V30 35 H -3.36363 -2.36711 0.706308 0
M  V30 36 H -4.6814 -2.26657 -0.484773 0
M  V30 37 H -1.92601 -2.03258 -0.57149 0
M  V30 38 H -2.7913 -1.82657 -1.99913 0
M  V30 39 H -0.436287 0.37405 -0.670256 0
M  V30 40 H 0.474669 -1.31494 2.56566 0
M  V30 41 H 2.78529 -1.73521 3.24155 0
M  V30 42 H 1.81698 0.748402 -0.877821 0
M  V30 43 H 6.61251 -0.132087 0.274016 0
M  V30 44 H 5.75908 1.15697 1.26846 0
M  V30 45 H 5.46616 -0.608602 2.73455 0
M  V30 46 H 5.4225 -1.86685 1.38788 0
M  V30 47 H 4.19765 -1.39762 -2.42507 0
M  V30 48 H 4.6161 -0.492657 -3.80635 0
M  V30 END ATOM
M  V30 BEGIN BOND
M  V30 1 2 1 2
M  V30 2 1 2 3
M  V30 3 1 3 4
M  V30 4 1 4 5
M  V30 5 1 5 6
M  V30 6 1 6 7
M  V30 7 1 7 8
M  V30 8 1 8 9
M  V30 9 1 8 10
M  V30 10 1 2 11
M  V30 11 1 11 12
M  V30 12 2 12 13
M  V30 13 1 13 14
M  V30 14 2 14 15
M  V30 15 1 15 16
M  V30 16 2 16 17
M  V30 17 1 16 18
M  V30 18 1 18 19
M  V30 19 1 19 20
M  V30 20 1 18 21
M  V30 21 2 21 22
M  V30 22 2 21 23
M  V30 23 1 21 24
M  V30 24 1 8 3
M  V30 25 1 17 12
M  V30 26 1 20 15
M  V30 27 1 3 25
M  V30 28 1 4 26
M  V30 29 1 4 27
M  V30 30 1 5 28
M  V30 31 1 5 29
M  V30 32 1 6 30
M  V30 33 1 6 31
M  V30 34 1 7 32
M  V30 35 1 7 33
M  V30 36 1 9 34
M  V30 37 1 9 35
M  V30 38 1 9 36
M  V30 39 1 10 37
M  V30 40 1 10 38
M  V30 41 1 11 39
M  V30 42 1 13 40
M  V30 43 1 14 41
M  V30 44 1 17 42
M  V30 45 1 19 43
M  V30 46 1 19 44
M  V30 47 1 20 45
M  V30 48 1 20 46
M  V30 49 1 24 47
M  V30 50 1 24 48
M  V30 END BOND
M  V30 END CTAB
M  END
