
     RDKit          3D

  0  0  0  0  0  0  0  0  0  0999 V3000
M  V30 BEGIN CTAB
M  V30 COUNTS 38 39 0 0 0
M  V30 BEGIN ATOM
M  V30 1 N 4.53897 2.23253 -0.0711122 0
M  V30 2 C 5.40873 1.07776 -0.129361 0
M  V30 3 C 4.92914 0.0208691 0.853394 0
M  V30 4 C 3.55355 -0.355745 0.468433 0
M  V30 5 C 2.46711 0.292838 0.970661 0
M  V30 6 C 1.15892 -0.0605249 0.608624 0
M  V30 7 C 0.940362 -1.0799 -0.270089 0
M  V30 8 C 2.04964 -1.74398 -0.784604 0
M  V30 9 C 3.31875 -1.38104 -0.416348 0
M  V30 10 C -0.405441 -1.45557 -0.645159 0
M  V30 11 O -0.535175 -2.21856 -1.66401 0
M  V30 12 N -1.51969 -1.00561 0.0745962 0
M  V30 13 C -2.88971 -1.35577 -0.266276 0
M  V30 14 C -3.73396 -0.180463 -0.489131 0
M  V30 15 N -4.59385 -0.0504771 -1.51324 0
M  V30 16 N -5.19471 1.09991 -1.43739 0
M  V30 17 C -4.74787 1.76355 -0.35901 0
M  V30 18 N -3.84282 0.96386 0.22372 0
M  V30 19 N -5.20634 3.0443 -0.000118052 0
M  V30 20 C -3.43619 -2.14864 0.906211 0
M  V30 21 H 4.40195 2.49925 0.920722 0
M  V30 22 H 3.66875 2.09638 -0.611655 0
M  V30 23 H 6.41891 1.42956 0.197557 0
M  V30 24 H 5.47543 0.70254 -1.15104 0
M  V30 25 H 5.58791 -0.855938 0.821795 0
M  V30 26 H 4.86666 0.494327 1.85605 0
M  V30 27 H 2.58712 1.10473 1.6682 0
M  V30 28 H 0.34351 0.503839 1.0458 0
M  V30 29 H 1.89802 -2.54846 -1.47733 0
M  V30 30 H 4.20296 -1.89404 -0.812559 0
M  V30 31 H -1.39048 -0.39596 0.896368 0
M  V30 32 H -2.88963 -2.00159 -1.14279 0
M  V30 33 H -5.92124 1.44833 -2.12443 0
M  V30 34 H -5.21581 3.81325 -0.687197 0
M  V30 35 H -5.53702 3.21629 0.96189 0
M  V30 36 H -3.7768 -1.46699 1.70731 0
M  V30 37 H -4.29934 -2.74727 0.568171 0
M  V30 38 H -2.6803 -2.85757 1.30334 0
M  V30 END ATOM
M  V30 BEGIN BOND
M  V30 1 1 1 2
M  V30 2 1 2 3
M  V30 3 1 3 4
M  V30 4 2 4 5
M  V30 5 1 5 6
M  V30 6 2 6 7
M  V30 7 1 7 8
M  V30 8 2 8 9
M  V30 9 1 7 10
M  V30 10 2 10 11
M  V30 11 1 10 12
M  V30 12 1 12 13
M  V30 13 1 13 14
M  V30 14 2 14 15
M  V30 15 1 15 16
M  V30 16 1 16 17
M  V30 17 2 17 18
M  V30 18 1 17 19
M  V30 19 1 13 20
M  V30 20 1 9 4
M  V30 21 1 18 14
M  V30 22 1 1 21
M  V30 23 1 1 22
M  V30 24 1 2 23
M  V30 25 1 2 24
M  V30 26 1 3 25
M  V30 27 1 3 26
M  V30 28 1 5 27
M  V30 29 1 6 28
M  V30 30 1 8 29
M  V30 31 1 9 30
M  V30 32 1 12 31
M  V30 33 1 13 32
M  V30 34 1 16 33
M  V30 35 1 19 34
M  V30 36 1 19 35
M  V30 37 1 20 36
M  V30 38 1 20 37
M  V30 39 1 20 38
M  V30 END BOND
M  V30 END CTAB
M  END
