
     RDKit          3D

  0  0  0  0  0  0  0  0  0  0999 V3000
M  V30 BEGIN CTAB
M  V30 COUNTS 15 15 0 0 0
M  V30 BEGIN ATOM
M  V30 1 N 2.24833 -1.32814 1.10439 0
M  V30 2 C 1.16236 -0.474616 0.782714 0
M  V30 3 C -0.0245044 -1.02677 0.332244 0
M  V30 4 C -1.09052 -0.185724 0.0167043 0
M  V30 5 N -2.27865 -0.795866 -0.438085 0
M  V30 6 N -0.920733 1.12859 0.163437 0
M  V30 7 C 0.223681 1.67876 0.598977 0
M  V30 8 S 0.405856 3.46598 0.781534 0
M  V30 9 N 1.26344 0.88005 0.908186 0
M  V30 10 H 3.2228 -1.03992 0.8855 0
M  V30 11 H 2.11704 -2.25308 1.56055 0
M  V30 12 H -0.0858672 -2.09901 0.239425 0
M  V30 13 H -3.1769 -0.297405 -0.313266 0
M  V30 14 H -2.28148 -1.72738 -0.893324 0
M  V30 15 H -0.784846 4.07455 0.351923 0
M  V30 END ATOM
M  V30 BEGIN BOND
M  V30 1 1 1 2
M  V30 2 2 2 3
M  V30 3 1 3 4
M  V30 4 1 4 5
M  V30 5 2 4 6
M  V30 6 1 6 7
M  V30 7 1 7 8
M  V30 8 2 7 9
M  V30 9 1 9 2
M  V30 10 1 1 10
M  V30 11 1 1 11
M  V30 12 1 3 12
M  V30 13 1 5 13
M  V30 14 1 5 14
M  V30 15 1 8 15
M  V30 END BOND
M  V30 END CTAB
M  END
