
     RDKit          3D

  0  0  0  0  0  0  0  0  0  0999 V3000
M  V30 BEGIN CTAB
M  V30 COUNTS 34 35 0 0 0
M  V30 BEGIN ATOM
M  V30 1 C -5.5726 1.36439 0.188517 0
M  V30 2 O -4.9087 0.304332 -0.489589 0
M  V30 3 C -3.52603 0.157592 -0.417977 0
M  V30 4 C -2.86567 -0.858829 -1.06345 0
M  V30 5 C -1.4738 -0.993503 -0.981006 0
M  V30 6 N -0.79157 -2.05272 -1.65412 0
M  V30 7 C -0.754905 -0.0818155 -0.232633 0
M  V30 8 C -1.4424 0.94132 0.41437 0
M  V30 9 C -2.81397 1.07463 0.333001 0
M  V30 10 C 0.694439 -0.130211 -0.0963069 0
M  V30 11 C 1.378 -1.11719 0.571093 0
M  V30 12 N 0.656101 -2.1726 1.16299 0
M  V30 13 C 2.74627 -1.08053 0.657667 0
M  V30 14 C 3.49374 -0.0483905 0.0758064 0
M  V30 15 O 4.85568 -0.0229151 0.169235 0
M  V30 16 C 5.74104 0.921025 -0.344449 0
M  V30 17 C 2.80581 0.94117 -0.594035 0
M  V30 18 C 1.43458 0.892925 -0.673265 0
M  V30 19 H -5.11886 2.33057 -0.167011 0
M  V30 20 H -6.62912 1.34148 -0.13401 0
M  V30 21 H -5.51822 1.26089 1.27286 0
M  V30 22 H -3.44457 -1.55596 -1.63923 0
M  V30 23 H -0.146318 -1.77997 -2.40916 0
M  V30 24 H -0.933519 -3.06342 -1.40119 0
M  V30 25 H -0.880964 1.65488 1.00082 0
M  V30 26 H -3.33975 1.87319 0.839027 0
M  V30 27 H -0.063712 -2.07645 1.90415 0
M  V30 28 H 0.855057 -3.15136 0.833347 0
M  V30 29 H 3.30712 -1.83969 1.17471 0
M  V30 30 H 6.59762 1.11503 0.367313 0
M  V30 31 H 5.20811 1.85894 -0.534699 0
M  V30 32 H 6.24889 0.532741 -1.26972 0
M  V30 33 H 3.28587 1.78092 -1.08042 0
M  V30 34 H 0.916345 1.67954 -1.20302 0
M  V30 END ATOM
M  V30 BEGIN BOND
M  V30 1 1 1 2
M  V30 2 1 2 3
M  V30 3 2 3 4
M  V30 4 1 4 5
M  V30 5 1 5 6
M  V30 6 2 5 7
M  V30 7 1 7 8
M  V30 8 2 8 9
M  V30 9 1 7 10
M  V30 10 2 10 11
M  V30 11 1 11 12
M  V30 12 1 11 13
M  V30 13 2 13 14
M  V30 14 1 14 15
M  V30 15 1 15 16
M  V30 16 1 14 17
M  V30 17 2 17 18
M  V30 18 1 9 3
M  V30 19 1 18 10
M  V30 20 1 1 19
M  V30 21 1 1 20
M  V30 22 1 1 21
M  V30 23 1 4 22
M  V30 24 1 6 23
M  V30 25 1 6 24
M  V30 26 1 8 25
M  V30 27 1 9 26
M  V30 28 1 12 27
M  V30 29 1 12 28
M  V30 30 1 13 29
M  V30 31 1 16 30
M  V30 32 1 16 31
M  V30 33 1 16 32
M  V30 34 1 17 33
M  V30 35 1 18 34
M  V30 END BOND
M  V30 END CTAB
M  END
