
     RDKit          3D

  0  0  0  0  0  0  0  0  0  0999 V3000
M  V30 BEGIN CTAB
M  V30 COUNTS 22 23 0 0 0
M  V30 BEGIN ATOM
M  V30 1 N -3.27985 -1.35229 1.21957 0
M  V30 2 C -2.31043 -0.570241 0.513033 0
M  V30 3 C -0.958421 -0.778218 0.703949 0
M  V30 4 C -0.0281627 -0.0348528 0.0323712 0
M  V30 5 C 1.40742 -0.291453 0.267522 0
M  V30 6 N 2.43173 0.332495 -0.295552 0
M  V30 7 C 3.63945 -0.00913204 0.0161825 0
M  V30 8 C 3.80447 -1.01759 0.929791 0
M  V30 9 S 2.18122 -1.41757 1.28887 0
M  V30 10 C -0.373554 0.943533 -0.854478 0
M  V30 11 N 0.537822 1.74254 -1.5765 0
M  V30 12 C -1.73219 1.16082 -1.05383 0
M  V30 13 C -2.67784 0.414571 -0.379673 0
M  V30 14 H -4.26963 -1.27731 0.898494 0
M  V30 15 H -2.95827 -1.93991 1.99615 0
M  V30 16 H -0.695562 -1.56209 1.41446 0
M  V30 17 H 4.52735 0.486917 -0.431325 0
M  V30 18 H 4.757 -1.43119 1.30621 0
M  V30 19 H 0.650462 2.78267 -1.40142 0
M  V30 20 H 1.13807 1.31721 -2.31926 0
M  V30 21 H -2.04498 1.93963 -1.75984 0
M  V30 22 H -3.7461 0.561453 -0.514711 0
M  V30 END ATOM
M  V30 BEGIN BOND
M  V30 1 1 1 2
M  V30 2 2 2 3
M  V30 3 1 3 4
M  V30 4 1 4 5
M  V30 5 2 5 6
M  V30 6 1 6 7
M  V30 7 2 7 8
M  V30 8 1 8 9
M  V30 9 2 4 10
M  V30 10 1 10 11
M  V30 11 1 10 12
M  V30 12 2 12 13
M  V30 13 1 13 2
M  V30 14 1 9 5
M  V30 15 1 1 14
M  V30 16 1 1 15
M  V30 17 1 3 16
M  V30 18 1 7 17
M  V30 19 1 8 18
M  V30 20 1 11 19
M  V30 21 1 11 20
M  V30 22 1 12 21
M  V30 23 1 13 22
M  V30 END BOND
M  V30 END CTAB
M  END
