
     RDKit          3D

  0  0  0  0  0  0  0  0  0  0999 V3000
M  V30 BEGIN CTAB
M  V30 COUNTS 28 28 0 0 0
M  V30 BEGIN ATOM
M  V30 1 N -3.39357 1.27202 0.258177 0
M  V30 2 C -2.87905 -0.0729467 0.0971996 0
M  V30 3 C -1.61765 0.0573815 -0.767489 0 CFG=2
M  V30 4 O -1.02833 -1.15148 -0.997495 0
M  V30 5 C -0.437056 -1.75067 0.0732102 0
M  V30 6 C 1.07765 -1.52945 -0.0739688 0
M  V30 7 N 1.21138 -0.185737 -0.537469 0
M  V30 8 C 0.535808 0.685389 0.371528 0
M  V30 9 C -0.751262 1.12859 -0.224177 0
M  V30 10 S 2.7767 0.287935 -0.966511 0
M  V30 11 O 3.23023 -0.59018 -2.12428 0
M  V30 12 O 2.7272 1.68843 -1.50771 0
M  V30 13 N 3.90916 0.233121 0.307761 0
M  V30 14 H -4.43319 1.32089 0.225253 0
M  V30 15 H -3.04543 1.93099 -0.464558 0
M  V30 16 H -2.6149 -0.444746 1.1101 0
M  V30 17 H -3.64692 -0.662636 -0.411649 0
M  V30 18 H -2.00725 0.41654 -1.76639 0
M  V30 19 H -0.795715 -1.40618 1.06373 0
M  V30 20 H -0.588677 -2.84736 -0.000646753 0
M  V30 21 H 1.52713 -2.28624 -0.737036 0
M  V30 22 H 1.49675 -1.68604 0.948885 0
M  V30 23 H 1.16238 1.59153 0.552716 0
M  V30 24 H 0.37889 0.237752 1.3865 0
M  V30 25 H -0.506071 1.92002 -0.993376 0
M  V30 26 H -1.30431 1.70698 0.574213 0
M  V30 27 H 4.70816 0.858462 0.0604009 0
M  V30 28 H 4.30796 -0.722376 0.42648 0
M  V30 END ATOM
M  V30 BEGIN BOND
M  V30 1 1 1 2
M  V30 2 1 2 3
M  V30 3 1 3 4
M  V30 4 1 4 5
M  V30 5 1 5 6
M  V30 6 1 6 7
M  V30 7 1 7 8
M  V30 8 1 8 9
M  V30 9 1 7 10
M  V30 10 2 10 11
M  V30 11 2 10 12
M  V30 12 1 10 13
M  V30 13 1 9 3
M  V30 14 1 1 14
M  V30 15 1 1 15
M  V30 16 1 2 16
M  V30 17 1 2 17
M  V30 18 1 3 18 CFG=3
M  V30 19 1 5 19
M  V30 20 1 5 20
M  V30 21 1 6 21
M  V30 22 1 6 22
M  V30 23 1 8 23
M  V30 24 1 8 24
M  V30 25 1 9 25
M  V30 26 1 9 26
M  V30 27 1 13 27
M  V30 28 1 13 28
M  V30 END BOND
M  V30 END CTAB
M  END
