
     RDKit          3D

  0  0  0  0  0  0  0  0  0  0999 V3000
M  V30 BEGIN CTAB
M  V30 COUNTS 29 29 0 0 0
M  V30 BEGIN ATOM
M  V30 1 C 3.47239 0.0666053 -0.882105 0
M  V30 2 C 2.42289 -0.918312 -1.23617 0
M  V30 3 O 1.16244 -0.504897 -0.978672 0
M  V30 4 C 0.763415 -0.241433 0.282468 0
M  V30 5 C -0.720453 0.0960852 0.188611 0
M  V30 6 N -1.15882 1.35173 0.276106 0
M  V30 7 C -2.49888 1.57255 0.204276 0
M  V30 8 N -2.99073 2.91891 0.25215 0
M  V30 9 N -3.31019 0.536299 0.0525797 0
M  V30 10 C -2.87414 -0.71483 -0.0334684 0
M  V30 11 N -1.54039 -0.939072 0.0380124 0
M  V30 12 N -3.81845 -1.79384 -0.173796 0
M  V30 13 C 1.36714 0.923701 1.00297 0
M  V30 14 C 0.859908 -1.43797 1.22221 0
M  V30 15 H 3.16109 1.12665 -0.948696 0
M  V30 16 H 3.88476 -0.192338 0.141217 0
M  V30 17 H 4.34722 -0.00280904 -1.61469 0
M  V30 18 H 2.70072 -1.92997 -0.84831 0
M  V30 19 H 2.50569 -1.04199 -2.37104 0
M  V30 20 H -3.93118 3.09586 0.746759 0
M  V30 21 H -2.51142 3.733 -0.163168 0
M  V30 22 H -3.62584 -2.71329 0.282168 0
M  V30 23 H -4.70428 -1.69289 -0.73831 0
M  V30 24 H 2.26964 0.643456 1.55972 0
M  V30 25 H 0.616258 1.17836 1.8322 0
M  V30 26 H 1.42053 1.87451 0.426812 0
M  V30 27 H 0.281722 -1.15826 2.12704 0
M  V30 28 H 0.514337 -2.36688 0.744035 0
M  V30 29 H 1.93461 -1.46893 1.54478 0
M  V30 END ATOM
M  V30 BEGIN BOND
M  V30 1 1 1 2
M  V30 2 1 2 3
M  V30 3 1 3 4
M  V30 4 1 4 5
M  V30 5 2 5 6
M  V30 6 1 6 7
M  V30 7 1 7 8
M  V30 8 2 7 9
M  V30 9 1 9 10
M  V30 10 2 10 11
M  V30 11 1 10 12
M  V30 12 1 4 13
M  V30 13 1 4 14
M  V30 14 1 11 5
M  V30 15 1 1 15
M  V30 16 1 1 16
M  V30 17 1 1 17
M  V30 18 1 2 18
M  V30 19 1 2 19
M  V30 20 1 8 20
M  V30 21 1 8 21
M  V30 22 1 12 22
M  V30 23 1 12 23
M  V30 24 1 13 24
M  V30 25 1 13 25
M  V30 26 1 13 26
M  V30 27 1 14 27
M  V30 28 1 14 28
M  V30 29 1 14 29
M  V30 END BOND
M  V30 END CTAB
M  END
