
     RDKit          3D

  0  0  0  0  0  0  0  0  0  0999 V3000
M  V30 BEGIN CTAB
M  V30 COUNTS 63 66 0 0 0
M  V30 BEGIN ATOM
M  V30 1 C -0.53203 0.915099 -0.685099 0 CFG=1
M  V30 2 S -0.410744 0.687742 1.06731 0
M  V30 3 C 1.11661 -0.261027 1.28736 0
M  V30 4 C 2.23546 0.312468 0.416602 0
M  V30 5 C 3.52893 0.32622 1.09241 0
M  V30 6 S 3.88601 -1.39296 1.54461 0
M  V30 7 C 5.36827 -1.69609 2.44003 0
M  V30 8 N 5.62859 -2.97606 2.88114 0
M  V30 9 N 6.73867 -2.9808 3.52884 0
M  V30 10 N 7.21987 -1.77029 3.53323 0
M  V30 11 N 6.38436 -0.961515 2.86115 0
M  V30 12 C 6.6508 0.433091 2.56353 0
M  V30 13 C 7.66841 0.541432 1.44064 0
M  V30 14 C 7.30575 -0.147333 0.186989 0
M  V30 15 N 8.40184 0.0491247 -0.776404 0
M  V30 16 C 1.9822 0.660767 -0.792724 0
M  V30 17 N 0.67319 0.505762 -1.33162 0
M  V30 18 C -0.209925 0.0230116 -2.35197 0
M  V30 19 O -0.133923 -0.0988547 -3.56598 0
M  V30 20 C -1.25888 -0.266919 -1.33356 0
M  V30 21 N -2.60295 -0.0321452 -1.72943 0
M  V30 22 C -3.70266 0.0328946 -0.870457 0
M  V30 23 O -3.39441 -0.0704292 0.386967 0
M  V30 24 C -5.06478 0.186431 -1.21565 0
M  V30 25 N -5.90634 0.288742 -0.200746 0
M  V30 26 O -5.71595 0.273293 1.1017 0
M  V30 27 C -6.25379 -0.712148 1.97694 0
M  V30 28 C -5.2852 -1.16131 3.02205 0
M  V30 29 C -7.49984 -0.299158 2.63616 0
M  V30 30 O -7.97384 1.04803 2.33117 0
M  V30 31 O -8.19661 -0.921812 3.39883 0
M  V30 32 C -5.62372 0.159776 -2.60387 0
M  V30 33 N -4.84617 -0.0376017 -3.64639 0
M  V30 34 S -5.92467 -0.000342824 -4.93443 0
M  V30 35 C -7.35871 0.275345 -4.04652 0
M  V30 36 N -8.70928 0.412495 -4.53606 0
M  V30 37 N -6.90494 0.322051 -2.79039 0
M  V30 38 C 2.96404 1.24538 -1.68562 0
M  V30 39 O 2.61303 1.59262 -3.00342 0
M  V30 40 O 4.12505 1.48752 -1.40052 0
M  V30 41 H -0.902129 1.83516 -1.01326 0
M  V30 42 H 0.996042 -1.32319 1.10691 0
M  V30 43 H 1.43693 -0.103093 2.33465 0
M  V30 44 H 4.34032 0.779203 0.566417 0
M  V30 45 H 3.36919 0.942939 2.04325 0
M  V30 46 H 7.17711 0.820579 3.49257 0
M  V30 47 H 5.73599 0.980768 2.41928 0
M  V30 48 H 7.78636 1.63314 1.25284 0
M  V30 49 H 8.64376 0.157715 1.82112 0
M  V30 50 H 6.39648 0.169738 -0.316056 0
M  V30 51 H 7.3277 -1.25836 0.381261 0
M  V30 52 H 8.57839 1.08493 -0.863258 0
M  V30 53 H 8.10667 -0.335317 -1.72538 0
M  V30 54 H -1.03872 -1.16366 -0.72706 0
M  V30 55 H -2.72718 0.0993839 -2.78108 0
M  V30 56 H -6.56497 -1.55765 1.29358 0
M  V30 57 H -4.67421 -0.259736 3.30028 0
M  V30 58 H -4.56765 -1.89759 2.58331 0
M  V30 59 H -5.82181 -1.56714 3.89543 0
M  V30 60 H -8.38485 1.55057 3.14017 0
M  V30 61 H -8.92425 0.0743871 -5.4644 0
M  V30 62 H -9.39966 0.848506 -3.91614 0
M  V30 63 H 2.1288 2.49623 -3.11463 0
M  V30 END ATOM
M  V30 BEGIN BOND
M  V30 1 1 1 2
M  V30 2 1 2 3
M  V30 3 1 3 4
M  V30 4 1 4 5
M  V30 5 1 5 6
M  V30 6 1 6 7
M  V30 7 2 7 8
M  V30 8 1 8 9
M  V30 9 2 9 10
M  V30 10 1 10 11
M  V30 11 1 11 12
M  V30 12 1 12 13
M  V30 13 1 13 14
M  V30 14 1 14 15
M  V30 15 2 4 16
M  V30 16 1 16 17
M  V30 17 1 17 18
M  V30 18 2 18 19
M  V30 19 1 18 20
M  V30 20 1 20 21
M  V30 21 1 21 22
M  V30 22 2 22 23
M  V30 23 1 22 24
M  V30 24 2 24 25
M  V30 25 1 25 26
M  V30 26 1 26 27
M  V30 27 1 27 28
M  V30 28 1 27 29
M  V30 29 1 29 30
M  V30 30 2 29 31
M  V30 31 1 24 32
M  V30 32 2 32 33
M  V30 33 1 33 34
M  V30 34 1 34 35
M  V30 35 1 35 36
M  V30 36 2 35 37
M  V30 37 1 16 38
M  V30 38 1 38 39
M  V30 39 2 38 40
M  V30 40 1 17 1
M  V30 41 1 37 32
M  V30 42 1 20 1
M  V30 43 1 11 7
M  V30 44 1 1 41 CFG=1
M  V30 45 1 3 42
M  V30 46 1 3 43
M  V30 47 1 5 44
M  V30 48 1 5 45
M  V30 49 1 12 46
M  V30 50 1 12 47
M  V30 51 1 13 48
M  V30 52 1 13 49
M  V30 53 1 14 50
M  V30 54 1 14 51
M  V30 55 1 15 52
M  V30 56 1 15 53
M  V30 57 1 20 54
M  V30 58 1 21 55
M  V30 59 1 27 56
M  V30 60 1 28 57
M  V30 61 1 28 58
M  V30 62 1 28 59
M  V30 63 1 30 60
M  V30 64 1 36 61
M  V30 65 1 36 62
M  V30 66 1 39 63
M  V30 END BOND
M  V30 END CTAB
M  END
