
     RDKit          3D

  0  0  0  0  0  0  0  0  0  0999 V3000
M  V30 BEGIN CTAB
M  V30 COUNTS 16 16 0 0 0
M  V30 BEGIN ATOM
M  V30 1 N -1.69662 -1.42869 0.09085 0
M  V30 2 C -0.456524 -0.743552 0.0263624 0
M  V30 3 C 0.764079 -1.38576 -0.0125064 0
M  V30 4 C 1.9627 -0.704353 -0.0751754 0
M  V30 5 C 1.9743 0.675781 -0.101432 0
M  V30 6 C 0.763828 1.33792 -0.0633574 0
M  V30 7 F 0.789701 2.70162 -0.0898794 0
M  V30 8 C -0.446294 0.643321 4.053e-05 0
M  V30 9 N -1.6525 1.39679 0.0362296 0
M  V30 10 H -2.12219 -1.62679 1.04083 0
M  V30 11 H -2.23867 -1.76162 -0.719526 0
M  V30 12 H 0.747852 -2.45928 0.00818941 0
M  V30 13 H 2.92335 -1.23088 -0.105372 0
M  V30 14 H 2.93102 1.20107 -0.151123 0
M  V30 15 H -1.98427 1.84741 0.916601 0
M  V30 16 H -2.25977 1.53701 -0.800737 0
M  V30 END ATOM
M  V30 BEGIN BOND
M  V30 1 1 1 2
M  V30 2 2 2 3
M  V30 3 1 3 4
M  V30 4 2 4 5
M  V30 5 1 5 6
M  V30 6 1 6 7
M  V30 7 2 6 8
M  V30 8 1 8 9
M  V30 9 1 8 2
M  V30 10 1 1 10
M  V30 11 1 1 11
M  V30 12 1 3 12
M  V30 13 1 4 13
M  V30 14 1 5 14
M  V30 15 1 9 15
M  V30 16 1 9 16
M  V30 END BOND
M  V30 END CTAB
M  END
