
     RDKit          3D

  0  0  0  0  0  0  0  0  0  0999 V3000
M  V30 BEGIN CTAB
M  V30 COUNTS 31 33 0 0 0
M  V30 BEGIN ATOM
M  V30 1 N -5.25369 0.863479 -0.508249 0
M  V30 2 C -3.87662 0.546952 -0.333094 0
M  V30 3 C -3.00261 1.59169 -0.187634 0
M  V30 4 C -1.66017 1.33937 -0.0152208 0
M  V30 5 C -1.19403 0.0338371 0.0112027 0
M  V30 6 C -2.09753 -0.993378 -0.137935 0
M  V30 7 C -3.44411 -0.759781 -0.31131 0
M  V30 8 C 0.26165 -0.207774 0.185358 0
M  V30 9 C 1.0921 0.486863 -0.627548 0
M  V30 10 C 2.49103 0.333733 -0.563029 0
M  V30 11 N 3.37201 0.951496 -1.29644 0
M  V30 12 C 4.65923 0.709778 -1.128 0
M  V30 13 S 4.64316 -0.449833 0.12978 0
M  V30 14 C 2.9534 -0.555521 0.367031 0
M  V30 15 C 2.08831 -1.27219 1.20658 0
M  V30 16 C 0.712082 -1.1052 1.1257 0
M  V30 17 C -0.194284 -1.85569 2.02106 0
M  V30 18 N 5.78039 1.28636 -1.83437 0
M  V30 19 H -5.6533 1.67925 -0.0311457 0
M  V30 20 H -5.80869 0.217167 -1.14322 0
M  V30 21 H -3.35819 2.62906 -0.206638 0
M  V30 22 H -0.935243 2.16077 0.104181 0
M  V30 23 H -1.75618 -2.02499 -0.125852 0
M  V30 24 H -4.15583 -1.58676 -0.429097 0
M  V30 25 H 0.649537 1.18707 -1.35415 0
M  V30 26 H 2.55184 -1.94088 1.89751 0
M  V30 27 H -1.1078 -1.30931 2.30847 0
M  V30 28 H 0.306269 -2.07006 3.01623 0
M  V30 29 H -0.404136 -2.89525 1.63274 0
M  V30 30 H 6.52765 0.694432 -2.22476 0
M  V30 31 H 5.81373 2.3153 -1.93873 0
M  V30 END ATOM
M  V30 BEGIN BOND
M  V30 1 1 1 2
M  V30 2 2 2 3
M  V30 3 1 3 4
M  V30 4 2 4 5
M  V30 5 1 5 6
M  V30 6 2 6 7
M  V30 7 1 5 8
M  V30 8 2 8 9
M  V30 9 1 9 10
M  V30 10 1 10 11
M  V30 11 2 11 12
M  V30 12 1 12 13
M  V30 13 1 13 14
M  V30 14 1 14 15
M  V30 15 2 15 16
M  V30 16 1 16 17
M  V30 17 1 12 18
M  V30 18 1 7 2
M  V30 19 1 16 8
M  V30 20 2 14 10
M  V30 21 1 1 19
M  V30 22 1 1 20
M  V30 23 1 3 21
M  V30 24 1 4 22
M  V30 25 1 6 23
M  V30 26 1 7 24
M  V30 27 1 9 25
M  V30 28 1 15 26
M  V30 29 1 17 27
M  V30 30 1 17 28
M  V30 31 1 17 29
M  V30 32 1 18 30
M  V30 33 1 18 31
M  V30 END BOND
M  V30 END CTAB
M  END
