
     RDKit          3D

  0  0  0  0  0  0  0  0  0  0999 V3000
M  V30 BEGIN CTAB
M  V30 COUNTS 25 26 0 0 0
M  V30 BEGIN ATOM
M  V30 1 N -3.84034 1.41702 0.425372 0
M  V30 2 C -3.48461 0.0731797 0.30525 0
M  V30 3 C -2.01186 -0.154842 0.176319 0
M  V30 4 C -1.50565 -1.43148 0.0493746 0
M  V30 5 C -0.134929 -1.55413 -0.0644327 0
M  V30 6 C 0.721437 -0.474001 -0.0557606 0
M  V30 7 C 0.170656 0.783163 0.0732703 0
M  V30 8 C -1.20831 0.962764 0.191637 0
M  V30 9 N 1.20948 1.6372 0.0523264 0
M  V30 10 C 2.3619 0.930214 -0.0850011 0
M  V30 11 N 2.07433 -0.382407 -0.15342 0
M  V30 12 C 3.02298 -1.49532 -0.303057 0
M  V30 13 N 3.66775 1.50683 -0.145604 0
M  V30 14 H -3.6105 2.07192 -0.298414 0
M  V30 15 H -4.2795 1.74667 1.28063 0
M  V30 16 H -3.99666 -0.362268 -0.602197 0
M  V30 17 H -3.80631 -0.492395 1.19402 0
M  V30 18 H -2.13982 -2.30654 0.0377731 0
M  V30 19 H 0.31325 -2.54234 -0.16702 0
M  V30 20 H -1.62309 1.95146 0.291711 0
M  V30 21 H 2.49914 -2.36343 -0.77002 0
M  V30 22 H 3.42404 -1.81179 0.660982 0
M  V30 23 H 3.86524 -1.14726 -0.969658 0
M  V30 24 H 3.82463 2.4225 -0.617664 0
M  V30 25 H 4.48675 1.01529 0.284897 0
M  V30 END ATOM
M  V30 BEGIN BOND
M  V30 1 1 1 2
M  V30 2 1 2 3
M  V30 3 2 3 4
M  V30 4 1 4 5
M  V30 5 2 5 6
M  V30 6 1 6 7
M  V30 7 2 7 8
M  V30 8 1 7 9
M  V30 9 2 9 10
M  V30 10 1 10 11
M  V30 11 1 11 12
M  V30 12 1 10 13
M  V30 13 1 8 3
M  V30 14 1 11 6
M  V30 15 1 1 14
M  V30 16 1 1 15
M  V30 17 1 2 16
M  V30 18 1 2 17
M  V30 19 1 4 18
M  V30 20 1 5 19
M  V30 21 1 8 20
M  V30 22 1 12 21
M  V30 23 1 12 22
M  V30 24 1 12 23
M  V30 25 1 13 24
M  V30 26 1 13 25
M  V30 END BOND
M  V30 END CTAB
M  END
