
     RDKit          3D

  0  0  0  0  0  0  0  0  0  0999 V3000
M  V30 BEGIN CTAB
M  V30 COUNTS 34 35 0 0 0
M  V30 BEGIN ATOM
M  V30 1 N -2.89038 -2.98044 0.18057 0
M  V30 2 C -2.46176 -1.6898 -0.285926 0
M  V30 3 C -1.33023 -1.1244 0.539053 0
M  V30 4 N -0.955683 0.13113 0.047291 0
M  V30 5 C -1.94135 1.12364 0.33123 0
M  V30 6 C -1.81173 2.39785 -0.478037 0
M  V30 7 C -0.40016 2.91752 -0.434776 0
M  V30 8 C 0.573975 1.79304 -0.738458 0
M  V30 9 C 0.344993 0.616605 0.186083 0 CFG=2
M  V30 10 C 1.45346 -0.341421 -0.0604515 0
M  V30 11 N 1.52526 -1.41018 -0.837627 0
M  V30 12 N 2.74113 -1.90024 -0.769534 0
M  V30 13 C 3.50752 -1.17082 0.0569824 0
M  V30 14 C 2.68913 -0.166211 0.520429 0
M  V30 15 N 4.88127 -1.36689 0.386959 0
M  V30 16 H -3.5536 -2.86256 0.975151 0
M  V30 17 H -2.09482 -3.53306 0.469586 0
M  V30 18 H -3.25663 -0.977863 -0.419566 0
M  V30 19 H -2.0051 -1.86818 -1.30722 0
M  V30 20 H -1.7409 -1.0352 1.59573 0
M  V30 21 H -0.511573 -1.86765 0.659052 0
M  V30 22 H -1.7805 1.45648 1.4106 0
M  V30 23 H -2.97954 0.78141 0.316555 0
M  V30 24 H -2.43017 3.15137 0.0942176 0
M  V30 25 H -2.18502 2.24094 -1.48848 0
M  V30 26 H -0.276981 3.67703 -1.20956 0
M  V30 27 H -0.162334 3.28832 0.578207 0
M  V30 28 H 0.497853 1.51891 -1.81325 0
M  V30 29 H 1.59101 2.21453 -0.572999 0
M  V30 30 H 0.440795 1.056 1.22678 0
M  V30 31 H 0.710409 -1.79265 -1.41268 0
M  V30 32 H 2.98615 0.626635 1.22916 0
M  V30 33 H 5.34893 -0.838621 1.15424 0
M  V30 34 H 5.47655 -2.06525 -0.129318 0
M  V30 END ATOM
M  V30 BEGIN BOND
M  V30 1 1 1 2
M  V30 2 1 2 3
M  V30 3 1 3 4
M  V30 4 1 4 5
M  V30 5 1 5 6
M  V30 6 1 6 7
M  V30 7 1 7 8
M  V30 8 1 8 9
M  V30 9 1 9 10
M  V30 10 1 10 11
M  V30 11 1 11 12
M  V30 12 2 12 13
M  V30 13 1 13 14
M  V30 14 1 13 15
M  V30 15 1 9 4
M  V30 16 2 14 10
M  V30 17 1 1 16
M  V30 18 1 1 17
M  V30 19 1 2 18
M  V30 20 1 2 19
M  V30 21 1 3 20
M  V30 22 1 3 21
M  V30 23 1 5 22
M  V30 24 1 5 23
M  V30 25 1 6 24
M  V30 26 1 6 25
M  V30 27 1 7 26
M  V30 28 1 7 27
M  V30 29 1 8 28
M  V30 30 1 8 29
M  V30 31 1 9 30 CFG=1
M  V30 32 1 11 31
M  V30 33 1 14 32
M  V30 34 1 15 33
M  V30 35 1 15 34
M  V30 END BOND
M  V30 END CTAB
M  END
