
     RDKit          3D

  0  0  0  0  0  0  0  0  0  0999 V3000
M  V30 BEGIN CTAB
M  V30 COUNTS 35 37 0 0 0
M  V30 BEGIN ATOM
M  V30 1 N 5.28023 -0.141819 -1.76624 0
M  V30 2 C 4.93832 0.98692 -0.993248 0
M  V30 3 N 5.44235 2.25633 -1.34452 0
M  V30 4 N 4.17567 0.866752 0.0221352 0
M  V30 5 C 3.62016 -0.365581 0.454098 0
M  V30 6 O 4.43088 -1.26808 0.780329 0
M  V30 7 C 2.18791 -0.603016 0.526557 0
M  V30 8 C 1.27244 0.362164 0.17738 0
M  V30 9 C -0.0768678 0.139555 0.245204 0
M  V30 10 C -0.520627 -1.09032 0.677028 0
M  V30 11 C 0.362729 -2.07825 1.034 0
M  V30 12 C 1.71441 -1.82029 0.95368 0
M  V30 13 C -1.99639 -1.08548 0.663283 0
M  V30 14 C -2.39699 0.161863 0.218388 0
M  V30 15 C -1.21204 0.992794 -0.066142 0
M  V30 16 O -1.23651 2.17925 -0.486406 0
M  V30 17 C -3.74763 0.411723 0.1189 0
M  V30 18 C -4.21458 1.74499 -0.356935 0
M  V30 19 O -5.58525 1.83578 -0.400301 0
M  V30 20 C -4.66565 -0.558817 0.455024 0
M  V30 21 C -4.25783 -1.79724 0.896818 0
M  V30 22 C -2.9108 -2.0583 1.00024 0
M  V30 23 H 4.59796 -0.926295 -1.82635 0
M  V30 24 H 6.17858 -0.243929 -2.28606 0
M  V30 25 H 5.99813 2.86136 -0.681775 0
M  V30 26 H 5.27677 2.64475 -2.29343 0
M  V30 27 H 1.66547 1.31225 -0.155788 0
M  V30 28 H 0.0488286 -3.06522 1.38088 0
M  V30 29 H 2.4211 -2.5932 1.23309 0
M  V30 30 H -3.85529 1.8186 -1.42515 0
M  V30 31 H -3.7167 2.5813 0.168842 0
M  V30 32 H -5.86782 2.52535 0.263517 0
M  V30 33 H -5.73339 -0.382082 0.38373 0
M  V30 34 H -5.00162 -2.56602 1.16293 0
M  V30 35 H -2.61596 -3.03779 1.34944 0
M  V30 END ATOM
M  V30 BEGIN BOND
M  V30 1 1 1 2
M  V30 2 1 2 3
M  V30 3 2 2 4
M  V30 4 1 4 5
M  V30 5 2 5 6
M  V30 6 1 5 7
M  V30 7 2 7 8
M  V30 8 1 8 9
M  V30 9 2 9 10
M  V30 10 1 10 11
M  V30 11 2 11 12
M  V30 12 1 10 13
M  V30 13 2 13 14
M  V30 14 1 14 15
M  V30 15 2 15 16
M  V30 16 1 14 17
M  V30 17 1 17 18
M  V30 18 1 18 19
M  V30 19 2 17 20
M  V30 20 1 20 21
M  V30 21 2 21 22
M  V30 22 1 12 7
M  V30 23 1 22 13
M  V30 24 1 15 9
M  V30 25 1 1 23
M  V30 26 1 1 24
M  V30 27 1 3 25
M  V30 28 1 3 26
M  V30 29 1 8 27
M  V30 30 1 11 28
M  V30 31 1 12 29
M  V30 32 1 18 30
M  V30 33 1 18 31
M  V30 34 1 19 32
M  V30 35 1 20 33
M  V30 36 1 21 34
M  V30 37 1 22 35
M  V30 END BOND
M  V30 END CTAB
M  END
