
     RDKit          3D

  0  0  0  0  0  0  0  0  0  0999 V3000
M  V30 BEGIN CTAB
M  V30 COUNTS 28 28 0 0 0
M  V30 BEGIN ATOM
M  V30 1 N 2.24739 2.883 -0.380743 0
M  V30 2 C 2.73305 1.86035 -0.0603031 0
M  V30 3 C 3.3567 0.625232 0.338408 0
M  V30 4 C 2.38086 -0.418541 0.760559 0
M  V30 5 N 1.4126 -0.824597 -0.207742 0
M  V30 6 C 0.0463761 -0.505649 0.0124701 0
M  V30 7 C -0.688971 -1.21746 0.968715 0
M  V30 8 C -2.01548 -0.983293 1.23865 0
M  V30 9 C -2.68393 0.00680102 0.536042 0
M  V30 10 C -1.96814 0.72617 -0.421333 0
M  V30 11 C -0.637896 0.468734 -0.667308 0
M  V30 12 N -2.70805 1.71511 -1.1083 0
M  V30 13 N -4.05633 0.284342 0.79782 0
M  V30 14 C 1.79103 -1.55051 -1.38845 0
M  V30 15 H 3.99303 0.892677 1.24686 0
M  V30 16 H 4.09224 0.217579 -0.406902 0
M  V30 17 H 2.9861 -1.32952 1.0688 0
M  V30 18 H 1.91624 -0.0651797 1.71323 0
M  V30 19 H -0.142171 -1.98328 1.50468 0
M  V30 20 H -2.58332 -1.53212 1.97922 0
M  V30 21 H -0.123964 1.04502 -1.41307 0
M  V30 22 H -2.93431 1.64686 -2.09926 0
M  V30 23 H -3.026 2.54968 -0.567637 0
M  V30 24 H -4.61497 0.850883 0.147218 0
M  V30 25 H -4.54031 -0.069941 1.64583 0
M  V30 26 H 0.988207 -2.22992 -1.77697 0
M  V30 27 H 2.68172 -2.19804 -1.23773 0
M  V30 28 H 2.0983 -0.864388 -2.22276 0
M  V30 END ATOM
M  V30 BEGIN BOND
M  V30 1 3 1 2
M  V30 2 1 2 3
M  V30 3 1 3 4
M  V30 4 1 4 5
M  V30 5 1 5 6
M  V30 6 2 6 7
M  V30 7 1 7 8
M  V30 8 2 8 9
M  V30 9 1 9 10
M  V30 10 2 10 11
M  V30 11 1 10 12
M  V30 12 1 9 13
M  V30 13 1 5 14
M  V30 14 1 11 6
M  V30 15 1 3 15
M  V30 16 1 3 16
M  V30 17 1 4 17
M  V30 18 1 4 18
M  V30 19 1 7 19
M  V30 20 1 8 20
M  V30 21 1 11 21
M  V30 22 1 12 22
M  V30 23 1 12 23
M  V30 24 1 13 24
M  V30 25 1 13 25
M  V30 26 1 14 26
M  V30 27 1 14 27
M  V30 28 1 14 28
M  V30 END BOND
M  V30 END CTAB
M  END
