
     RDKit          3D

  0  0  0  0  0  0  0  0  0  0999 V3000
M  V30 BEGIN CTAB
M  V30 COUNTS 35 36 0 0 0
M  V30 BEGIN ATOM
M  V30 1 Cl -4.93047 -0.354177 1.88544 0
M  V30 2 C -3.56926 -0.709697 0.816963 0
M  V30 3 C -3.03381 -1.9981 0.873477 0
M  V30 4 C -1.97026 -2.27566 0.0385638 0
M  V30 5 C -1.43461 -1.35393 -0.822597 0
M  V30 6 C -1.99449 -0.092036 -0.846281 0
M  V30 7 C -3.05924 0.232221 -0.0296817 0
M  V30 8 S -3.75965 1.81747 -0.0620093 0
M  V30 9 O -3.09589 2.6496 -1.12037 0
M  V30 10 O -5.20421 1.70097 -0.411255 0
M  V30 11 N -3.62628 2.5282 1.50238 0
M  V30 12 S -0.0745951 -1.72457 -1.88366 0
M  V30 13 O -0.180894 -0.983995 -3.1839 0
M  V30 14 O -0.118762 -3.21808 -2.14019 0
M  V30 15 C 1.41314 -1.35095 -1.03736 0
M  V30 16 C 2.04197 -2.32339 -0.263533 0
M  V30 17 C 3.21628 -2.046 0.410907 0
M  V30 18 C 3.74609 -0.772635 0.292505 0
M  V30 19 C 3.15511 0.218347 -0.463117 0
M  V30 20 C 1.98465 -0.0924847 -1.12271 0
M  V30 21 S 3.87591 1.82167 -0.576739 0
M  V30 22 O 3.53106 2.35541 -1.94391 0
M  V30 23 O 5.37191 1.63061 -0.464467 0
M  V30 24 N 3.28232 2.85392 0.663203 0
M  V30 25 H -3.45922 -2.71571 1.55142 0
M  V30 26 H -1.54218 -3.27442 0.0707419 0
M  V30 27 H -1.59293 0.669151 -1.52105 0
M  V30 28 H -2.77264 3.11578 1.60282 0
M  V30 29 H -4.49787 3.0299 1.77673 0
M  V30 30 H 1.59855 -3.30526 -0.195329 0
M  V30 31 H 3.70475 -2.81587 1.01736 0
M  V30 32 H 4.67099 -0.567881 0.828762 0
M  V30 33 H 1.52613 0.697289 -1.71666 0
M  V30 34 H 3.93234 2.92667 1.45031 0
M  V30 35 H 2.86605 3.72765 0.323449 0
M  V30 END ATOM
M  V30 BEGIN BOND
M  V30 1 1 1 2
M  V30 2 2 2 3
M  V30 3 1 3 4
M  V30 4 2 4 5
M  V30 5 1 5 6
M  V30 6 2 6 7
M  V30 7 1 7 8
M  V30 8 2 8 9
M  V30 9 2 8 10
M  V30 10 1 8 11
M  V30 11 1 5 12
M  V30 12 2 12 13
M  V30 13 2 12 14
M  V30 14 1 12 15
M  V30 15 2 15 16
M  V30 16 1 16 17
M  V30 17 2 17 18
M  V30 18 1 18 19
M  V30 19 2 19 20
M  V30 20 1 19 21
M  V30 21 2 21 22
M  V30 22 2 21 23
M  V30 23 1 21 24
M  V30 24 1 7 2
M  V30 25 1 20 15
M  V30 26 1 3 25
M  V30 27 1 4 26
M  V30 28 1 6 27
M  V30 29 1 11 28
M  V30 30 1 11 29
M  V30 31 1 16 30
M  V30 32 1 17 31
M  V30 33 1 18 32
M  V30 34 1 20 33
M  V30 35 1 24 34
M  V30 36 1 24 35
M  V30 END BOND
M  V30 END CTAB
M  END
