
     RDKit          3D

  0  0  0  0  0  0  0  0  0  0999 V3000
M  V30 BEGIN CTAB
M  V30 COUNTS 131 135 0 0 0
M  V30 BEGIN ATOM
M  V30 1 N -8.90188 -0.115055 -0.296013 0
M  V30 2 C -8.55301 0.803644 0.746374 0 CFG=1
M  V30 3 C -8.8778 0.296854 2.13164 0
M  V30 4 C -10.3412 0.0846797 2.15092 0
M  V30 5 C -10.9061 -1.09878 1.78921 0
M  V30 6 C -12.2907 -1.28819 1.78479 0
M  V30 7 C -13.1088 -0.248928 2.15741 0
M  V30 8 O -14.4885 -0.357976 2.17844 0
M  V30 9 C -12.546 0.956546 2.52745 0
M  V30 10 C -11.1551 1.12378 2.52397 0
M  V30 11 C -7.19197 1.36546 0.597488 0
M  V30 12 O -6.80366 2.12958 1.51253 0
M  V30 13 N -6.40318 1.05526 -0.511959 0
M  V30 14 C -5.09191 1.53984 -0.80258 0 CFG=1
M  V30 15 C -5.00785 3.07457 -0.802931 0
M  V30 16 C -5.90959 3.64755 -1.80591 0
M  V30 17 C -7.15922 4.13829 -1.50256 0
M  V30 18 C -8.00676 4.64798 -2.47587 0
M  V30 19 C -7.62566 4.6832 -3.79507 0
M  V30 20 O -8.48605 5.1983 -4.77164 0
M  V30 21 C -6.37977 4.20054 -4.13614 0
M  V30 22 C -5.54063 3.6935 -3.15806 0
M  V30 23 C -4.06773 0.985445 0.0826212 0
M  V30 24 O -4.25555 0.845994 1.31584 0
M  V30 25 N -2.81457 0.582324 -0.43636 0
M  V30 26 C -1.72713 0.0426493 0.372099 0 CFG=1
M  V30 27 C -2.08654 -1.45778 0.49595 0
M  V30 28 C -1.10023 -2.21346 1.27277 0
M  V30 29 C -0.0579357 -2.8025 0.574811 0
M  V30 30 C 0.93039 -3.52767 1.18562 0
M  V30 31 C 0.912233 -3.69769 2.57181 0
M  V30 32 O 1.93637 -4.44 3.12843 0
M  V30 33 C -0.11501 -3.11949 3.27849 0
M  V30 34 C -1.11667 -2.38028 2.62848 0
M  V30 35 C -0.48878 0.113936 -0.405055 0
M  V30 36 O -0.560023 -0.151951 -1.65217 0
M  V30 37 N 0.797492 0.448331 0.093257 0
M  V30 38 C 1.96144 0.444729 -0.771793 0 CFG=1
M  V30 39 C 2.3691 1.84425 -1.18047 0
M  V30 40 C 1.36577 2.59888 -1.9264 0
M  V30 41 C 0.484974 3.40758 -1.2077 0
M  V30 42 C -0.473624 4.14411 -1.84801 0
M  V30 43 C -0.615814 4.12536 -3.21166 0
M  V30 44 O -1.58013 4.86106 -3.90492 0
M  V30 45 C 0.276948 3.30895 -3.90804 0
M  V30 46 C 1.23932 2.56611 -3.2962 0
M  V30 47 C 3.12744 -0.141697 -0.0901687 0
M  V30 48 O 3.36165 0.151445 1.13377 0
M  V30 49 N 4.02263 -1.03 -0.719569 0
M  V30 50 C 5.19661 -1.57505 0.0132349 0 CFG=1
M  V30 51 C 4.71483 -2.77505 0.750525 0
M  V30 52 C 5.66222 -3.50619 1.57135 0
M  V30 53 C 6.29361 -4.67908 1.21906 0
M  V30 54 C 7.19267 -5.33203 2.03003 0
M  V30 55 C 7.5191 -4.82869 3.27727 0
M  V30 56 O 8.41765 -5.44931 4.12604 0
M  V30 57 C 6.89607 -3.65497 3.64575 0
M  V30 58 C 5.99667 -2.99881 2.84065 0
M  V30 59 C 6.33466 -1.65986 -0.858573 0
M  V30 60 O 6.12945 -1.43967 -2.11092 0
M  V30 61 N 7.66487 -1.94797 -0.513437 0
M  V30 62 C 8.69442 -1.97882 -1.51924 0 CFG=1
M  V30 63 C 9.57403 -0.790361 -1.61659 0
M  V30 64 C 10.4067 -0.387791 -0.480661 0
M  V30 65 C 9.76086 0.081739 0.759258 0
M  V30 66 N 8.95658 1.26412 0.464223 0
M  V30 67 C 8.28199 1.94358 1.48865 0
M  V30 68 N 7.18583 1.30605 2.16193 0
M  V30 69 N 8.58735 3.14278 1.88848 0
M  V30 70 C 9.5387 -3.19199 -1.42537 0
M  V30 71 O 10.5615 -3.38266 -2.33544 0
M  V30 72 O 9.34065 -4.04368 -0.54031 0
M  V30 73 H -9.25853 0.289624 -1.15623 0
M  V30 74 H -8.22654 -0.86 -0.486722 0
M  V30 75 H -9.26589 1.69986 0.622455 0
M  V30 76 H -8.38489 -0.689764 2.3328 0
M  V30 77 H -8.55865 1.04475 2.86531 0
M  V30 78 H -10.3153 -1.95372 1.48451 0
M  V30 79 H -12.7525 -2.20526 1.50722 0
M  V30 80 H -14.9913 -1.18995 1.92386 0
M  V30 81 H -13.2036 1.76106 2.81644 0
M  V30 82 H -10.7713 2.09534 2.82903 0
M  V30 83 H -6.83255 0.370757 -1.23734 0
M  V30 84 H -4.8257 1.28583 -1.86736 0
M  V30 85 H -3.9393 3.32129 -0.981017 0
M  V30 86 H -5.25368 3.49747 0.193231 0
M  V30 87 H -7.52705 4.16101 -0.480448 0
M  V30 88 H -8.99533 5.03435 -2.23083 0
M  V30 89 H -9.11601 4.50735 -5.20398 0
M  V30 90 H -6.04152 4.21327 -5.18458 0
M  V30 91 H -4.54322 3.30266 -3.39793 0
M  V30 92 H -2.66501 0.68268 -1.47993 0
M  V30 93 H -1.7593 0.502044 1.34989 0
M  V30 94 H -3.0837 -1.56052 0.966754 0
M  V30 95 H -2.16088 -1.87289 -0.524448 0
M  V30 96 H 0.0143638 -2.7125 -0.50458 0
M  V30 97 H 1.73142 -3.9713 0.594739 0
M  V30 98 H 2.01702 -4.61809 4.12138 0
M  V30 99 H -0.131368 -3.24778 4.35024 0
M  V30 100 H -1.89834 -1.94157 3.19998 0
M  V30 101 H 0.878333 0.694789 1.10049 0
M  V30 102 H 1.69759 -0.169194 -1.64406 0
M  V30 103 H 3.33411 1.86032 -1.71489 0
M  V30 104 H 2.57434 2.39879 -0.223345 0
M  V30 105 H 0.553833 3.45804 -0.109362 0
M  V30 106 H -1.15089 4.76794 -1.25389 0
M  V30 107 H -2.46925 4.37643 -4.04726 0
M  V30 108 H 0.185665 3.27546 -4.98717 0
M  V30 109 H 1.94113 1.92446 -3.81999 0
M  V30 110 H 3.89373 -1.32842 -1.68679 0
M  V30 111 H 5.3845 -0.77889 0.80473 0
M  V30 112 H 4.22844 -3.44248 -0.0291706 0
M  V30 113 H 3.85633 -2.48675 1.42693 0
M  V30 114 H 6.03927 -5.08212 0.231456 0
M  V30 115 H 7.6824 -6.27054 1.72629 0
M  V30 116 H 9.4137 -5.2379 4.10845 0
M  V30 117 H 7.14114 -3.24621 4.61452 0
M  V30 118 H 5.51252 -2.07299 3.14534 0
M  V30 119 H 7.88428 -2.15284 0.471969 0
M  V30 120 H 8.18874 -2.02792 -2.55692 0
M  V30 121 H 10.1991 -0.927147 -2.55902 0
M  V30 122 H 8.91684 0.101726 -1.90119 0
M  V30 123 H 11.1533 -1.23126 -0.222754 0
M  V30 124 H 11.1112 0.433675 -0.813527 0
M  V30 125 H 9.20033 -0.615903 1.36482 0
M  V30 126 H 10.5891 0.4439 1.45877 0
M  V30 127 H 8.85863 1.64181 -0.524079 0
M  V30 128 H 7.28191 0.919196 3.12235 0
M  V30 129 H 6.26425 1.21763 1.69903 0
M  V30 130 H 9.37661 3.65556 1.43771 0
M  V30 131 H 11.1599 -4.20073 -2.25824 0
M  V30 END ATOM
M  V30 BEGIN BOND
M  V30 1 1 1 2
M  V30 2 1 2 3
M  V30 3 1 3 4
M  V30 4 2 4 5
M  V30 5 1 5 6
M  V30 6 2 6 7
M  V30 7 1 7 8
M  V30 8 1 7 9
M  V30 9 2 9 10
M  V30 10 1 2 11
M  V30 11 2 11 12
M  V30 12 1 11 13
M  V30 13 1 13 14
M  V30 14 1 14 15
M  V30 15 1 15 16
M  V30 16 2 16 17
M  V30 17 1 17 18
M  V30 18 2 18 19
M  V30 19 1 19 20
M  V30 20 1 19 21
M  V30 21 2 21 22
M  V30 22 1 14 23
M  V30 23 2 23 24
M  V30 24 1 23 25
M  V30 25 1 25 26
M  V30 26 1 26 27
M  V30 27 1 27 28
M  V30 28 2 28 29
M  V30 29 1 29 30
M  V30 30 2 30 31
M  V30 31 1 31 32
M  V30 32 1 31 33
M  V30 33 2 33 34
M  V30 34 1 26 35
M  V30 35 2 35 36
M  V30 36 1 35 37
M  V30 37 1 37 38
M  V30 38 1 38 39
M  V30 39 1 39 40
M  V30 40 2 40 41
M  V30 41 1 41 42
M  V30 42 2 42 43
M  V30 43 1 43 44
M  V30 44 1 43 45
M  V30 45 2 45 46
M  V30 46 1 38 47
M  V30 47 2 47 48
M  V30 48 1 47 49
M  V30 49 1 49 50
M  V30 50 1 50 51
M  V30 51 1 51 52
M  V30 52 2 52 53
M  V30 53 1 53 54
M  V30 54 2 54 55
M  V30 55 1 55 56
M  V30 56 1 55 57
M  V30 57 2 57 58
M  V30 58 1 50 59
M  V30 59 2 59 60
M  V30 60 1 59 61
M  V30 61 1 61 62
M  V30 62 1 62 63
M  V30 63 1 63 64
M  V30 64 1 64 65
M  V30 65 1 65 66
M  V30 66 1 66 67
M  V30 67 1 67 68
M  V30 68 2 67 69 CFG=2
M  V30 69 1 62 70
M  V30 70 1 70 71
M  V30 71 2 70 72
M  V30 72 1 10 4
M  V30 73 1 22 16
M  V30 74 1 34 28
M  V30 75 1 46 40
M  V30 76 1 58 52
M  V30 77 1 1 73
M  V30 78 1 1 74
M  V30 79 1 2 75 CFG=3
M  V30 80 1 3 76
M  V30 81 1 3 77
M  V30 82 1 5 78
M  V30 83 1 6 79
M  V30 84 1 8 80
M  V30 85 1 9 81
M  V30 86 1 10 82
M  V30 87 1 13 83
M  V30 88 1 14 84 CFG=3
M  V30 89 1 15 85
M  V30 90 1 15 86
M  V30 91 1 17 87
M  V30 92 1 18 88
M  V30 93 1 20 89
M  V30 94 1 21 90
M  V30 95 1 22 91
M  V30 96 1 25 92
M  V30 97 1 26 93 CFG=1
M  V30 98 1 27 94
M  V30 99 1 27 95
M  V30 100 1 29 96
M  V30 101 1 30 97
M  V30 102 1 32 98
M  V30 103 1 33 99
M  V30 104 1 34 100
M  V30 105 1 37 101
M  V30 106 1 38 102 CFG=3
M  V30 107 1 39 103
M  V30 108 1 39 104
M  V30 109 1 41 105
M  V30 110 1 42 106
M  V30 111 1 44 107
M  V30 112 1 45 108
M  V30 113 1 46 109
M  V30 114 1 49 110
M  V30 115 1 50 111 CFG=1
M  V30 116 1 51 112
M  V30 117 1 51 113
M  V30 118 1 53 114
M  V30 119 1 54 115
M  V30 120 1 56 116
M  V30 121 1 57 117
M  V30 122 1 58 118
M  V30 123 1 61 119
M  V30 124 1 62 120 CFG=3
M  V30 125 1 63 121
M  V30 126 1 63 122
M  V30 127 1 64 123
M  V30 128 1 64 124
M  V30 129 1 65 125
M  V30 130 1 65 126
M  V30 131 1 66 127
M  V30 132 1 68 128
M  V30 133 1 68 129
M  V30 134 1 69 130
M  V30 135 1 71 131
M  V30 END BOND
M  V30 END CTAB
M  END
