
     RDKit          3D

  0  0  0  0  0  0  0  0  0  0999 V3000
M  V30 BEGIN CTAB
M  V30 COUNTS 42 43 0 0 0
M  V30 BEGIN ATOM
M  V30 1 N -5.98065 2.14082 1.79539 0
M  V30 2 C -5.33213 0.994039 1.32293 0
M  V30 3 C -5.84758 -0.255562 1.5352 0
M  V30 4 C -5.20654 -1.40121 1.06805 0
M  V30 5 C -4.02547 -1.22326 0.37951 0
M  V30 6 C -3.48156 0.0211087 0.149745 0
M  V30 7 C -4.1455 1.12001 0.626906 0
M  V30 8 N -2.22532 0.167676 -0.580567 0
M  V30 9 C -1.06833 -0.175003 0.0903313 0
M  V30 10 O -1.26344 -0.556507 1.32927 0
M  V30 11 C 0.322678 -0.195967 -0.309051 0
M  V30 12 O 0.771079 0.0768776 -1.44086 0
M  V30 13 N 1.29754 -0.561586 0.668529 0
M  V30 14 C 2.68392 -0.654297 0.456529 0
M  V30 15 C 3.2868 -0.959093 -0.73294 0
M  V30 16 C 4.67312 -1.01268 -0.894381 0
M  V30 17 C 5.46097 -0.749539 0.183178 0
M  V30 18 C 4.89007 -0.438807 1.39861 0
M  V30 19 C 3.53555 -0.388769 1.54696 0
M  V30 20 S 7.19778 -0.80791 0.0612094 0
M  V30 21 O 7.75061 -1.10827 1.4483 0
M  V30 22 O 7.60182 -1.88313 -0.915213 0
M  V30 23 N 7.80495 0.725627 -0.417776 0
M  V30 24 C -2.36454 0.658927 -1.88085 0
M  V30 25 O -1.42274 0.854948 -2.65742 0
M  V30 26 C -3.74393 0.989256 -2.41755 0
M  V30 27 H -5.45335 3.00384 2.12981 0
M  V30 28 H -7.0389 2.22859 1.85128 0
M  V30 29 H -6.78375 -0.414061 2.08251 0
M  V30 30 H -5.6172 -2.38952 1.23896 0
M  V30 31 H -3.47554 -2.06467 -0.0109953 0
M  V30 32 H -3.69541 2.10228 0.433606 0
M  V30 33 H 0.965925 -0.790696 1.65147 0
M  V30 34 H 2.69237 -1.1901 -1.60012 0
M  V30 35 H 5.08993 -1.2614 -1.8692 0
M  V30 36 H 5.51848 -0.225142 2.26622 0
M  V30 37 H 3.06353 -0.142236 2.50764 0
M  V30 38 H 7.09179 1.47098 -0.427658 0
M  V30 39 H 8.66224 1.00288 0.071953 0
M  V30 40 H -3.71654 0.93124 -3.51723 0
M  V30 41 H -3.97044 2.05897 -2.16907 0
M  V30 42 H -4.5023 0.301337 -2.03612 0
M  V30 END ATOM
M  V30 BEGIN BOND
M  V30 1 1 1 2
M  V30 2 2 2 3
M  V30 3 1 3 4
M  V30 4 2 4 5
M  V30 5 1 5 6
M  V30 6 2 6 7
M  V30 7 1 6 8
M  V30 8 1 8 9
M  V30 9 2 9 10
M  V30 10 1 9 11
M  V30 11 2 11 12
M  V30 12 1 11 13
M  V30 13 1 13 14
M  V30 14 2 14 15
M  V30 15 1 15 16
M  V30 16 2 16 17
M  V30 17 1 17 18
M  V30 18 2 18 19
M  V30 19 1 17 20
M  V30 20 2 20 21
M  V30 21 2 20 22
M  V30 22 1 20 23
M  V30 23 1 8 24
M  V30 24 2 24 25
M  V30 25 1 24 26
M  V30 26 1 7 2
M  V30 27 1 19 14
M  V30 28 1 1 27
M  V30 29 1 1 28
M  V30 30 1 3 29
M  V30 31 1 4 30
M  V30 32 1 5 31
M  V30 33 1 7 32
M  V30 34 1 13 33
M  V30 35 1 15 34
M  V30 36 1 16 35
M  V30 37 1 18 36
M  V30 38 1 19 37
M  V30 39 1 23 38
M  V30 40 1 23 39
M  V30 41 1 26 40
M  V30 42 1 26 41
M  V30 43 1 26 42
M  V30 END BOND
M  V30 END CTAB
M  END
