
     RDKit          3D

  0  0  0  0  0  0  0  0  0  0999 V3000
M  V30 BEGIN CTAB
M  V30 COUNTS 27 28 0 0 0
M  V30 BEGIN ATOM
M  V30 1 C -4.12481 1.79913 -0.692022 0
M  V30 2 C -3.01113 0.869573 -0.353743 0
M  V30 3 N -1.74546 1.25858 -0.229776 0
M  V30 4 N -0.986807 0.244735 0.0690433 0
M  V30 5 C -1.71945 -0.856236 0.155091 0
M  V30 6 N -1.32994 -2.18281 0.454132 0
M  V30 7 C -3.03073 -0.482077 -0.113287 0
M  V30 8 C -4.19917 -1.29528 -0.145542 0
M  V30 9 N -5.1362 -1.93848 -0.168259 0
M  V30 10 C 0.417202 0.318046 0.269704 0
M  V30 11 C 1.2628 0.183739 -0.81182 0
M  V30 12 C 2.65099 0.247174 -0.682637 0
M  V30 13 C 3.15174 0.450066 0.571529 0
M  V30 14 N 4.54229 0.526883 0.767336 0
M  V30 15 N 5.25582 -0.671734 1.02188 0
M  V30 16 N 2.31665 0.576572 1.5992 0
M  V30 17 N 0.990631 0.515375 1.47132 0
M  V30 18 H -4.02793 2.68004 0.00861626 0
M  V30 19 H -3.96891 2.11189 -1.75292 0
M  V30 20 H -5.11253 1.35206 -0.518618 0
M  V30 21 H -0.523585 -2.61634 -0.0221444 0
M  V30 22 H -1.85884 -2.72043 1.15632 0
M  V30 23 H 0.818157 0.0232084 -1.80012 0
M  V30 24 H 3.3006 0.137072 -1.5616 0
M  V30 25 H 5.04941 1.44274 0.728572 0
M  V30 26 H 6.20045 -0.513095 0.556876 0
M  V30 27 H 4.81875 -1.46041 0.488737 0
M  V30 END ATOM
M  V30 BEGIN BOND
M  V30 1 1 1 2
M  V30 2 2 2 3
M  V30 3 1 3 4
M  V30 4 1 4 5
M  V30 5 1 5 6
M  V30 6 2 5 7
M  V30 7 1 7 8
M  V30 8 3 8 9
M  V30 9 1 4 10
M  V30 10 2 10 11
M  V30 11 1 11 12
M  V30 12 2 12 13
M  V30 13 1 13 14
M  V30 14 1 14 15
M  V30 15 1 13 16
M  V30 16 2 16 17
M  V30 17 1 7 2
M  V30 18 1 17 10
M  V30 19 1 1 18
M  V30 20 1 1 19
M  V30 21 1 1 20
M  V30 22 1 6 21
M  V30 23 1 6 22
M  V30 24 1 11 23
M  V30 25 1 12 24
M  V30 26 1 14 25
M  V30 27 1 15 26
M  V30 28 1 15 27
M  V30 END BOND
M  V30 END CTAB
M  END
