
     RDKit          3D

  0  0  0  0  0  0  0  0  0  0999 V3000
M  V30 BEGIN CTAB
M  V30 COUNTS 24 24 0 0 0
M  V30 BEGIN ATOM
M  V30 1 C -4.04611 0.293197 -0.111626 0
M  V30 2 O -2.73632 0.520426 -0.54039 0
M  V30 3 C -1.60603 0.0223418 0.0446156 0
M  V30 4 C -1.66141 -0.784662 1.15978 0
M  V30 5 C -0.485308 -1.27491 1.72995 0
M  V30 6 C 0.744693 -0.943558 1.165 0
M  V30 7 C 0.80846 -0.139384 0.0529793 0
M  V30 8 C 2.10194 0.21153 -0.544548 0
M  V30 9 O 2.11001 0.952915 -1.56529 0
M  V30 10 N 3.32101 -0.242581 -0.0278988 0
M  V30 11 N 4.52071 0.121744 -0.635569 0
M  V30 12 C -0.373393 0.330359 -0.48847 0
M  V30 13 N -0.326962 1.16223 -1.63705 0
M  V30 14 H -4.18497 -0.74958 0.269738 0
M  V30 15 H -4.69778 0.340645 -1.03008 0
M  V30 16 H -4.39848 1.01903 0.658986 0
M  V30 17 H -2.63446 -1.01871 1.56807 0
M  V30 18 H -0.574655 -1.90485 2.60452 0
M  V30 19 H 1.61235 -1.35011 1.64738 0
M  V30 20 H 3.4014 -0.860109 0.814601 0
M  V30 21 H 4.40226 1.0738 -1.07643 0
M  V30 22 H 5.31407 0.212209 0.0486788 0
M  V30 23 H -0.20269 2.18941 -1.49095 0
M  V30 24 H -0.408336 0.818618 -2.616 0
M  V30 END ATOM
M  V30 BEGIN BOND
M  V30 1 1 1 2
M  V30 2 1 2 3
M  V30 3 2 3 4
M  V30 4 1 4 5
M  V30 5 2 5 6
M  V30 6 1 6 7
M  V30 7 1 7 8
M  V30 8 2 8 9
M  V30 9 1 8 10
M  V30 10 1 10 11
M  V30 11 2 7 12
M  V30 12 1 12 13
M  V30 13 1 12 3
M  V30 14 1 1 14
M  V30 15 1 1 15
M  V30 16 1 1 16
M  V30 17 1 4 17
M  V30 18 1 5 18
M  V30 19 1 6 19
M  V30 20 1 10 20
M  V30 21 1 11 21
M  V30 22 1 11 22
M  V30 23 1 13 23
M  V30 24 1 13 24
M  V30 END BOND
M  V30 END CTAB
M  END
