
     RDKit          3D

  0  0  0  0  0  0  0  0  0  0999 V3000
M  V30 BEGIN CTAB
M  V30 COUNTS 28 30 0 0 0
M  V30 BEGIN ATOM
M  V30 1 N -2.20001 1.84469 -1.23301 0
M  V30 2 C -2.75051 0.661178 -0.724852 0
M  V30 3 N -3.97818 0.321682 -0.953124 0
M  V30 4 N -4.30848 -0.87978 -0.359912 0
M  V30 5 C -3.29261 -1.35646 0.275625 0
M  V30 6 C -2.17396 -0.3857 0.0941733 0
M  V30 7 C -0.982724 -0.497469 0.596299 0
M  V30 8 C 0.158656 0.368462 0.519994 0
M  V30 9 C 0.219358 1.71349 0.799055 0
M  V30 10 N 1.48379 2.098 0.568144 0
M  V30 11 C 2.22005 1.05469 0.157099 0
M  V30 12 C 1.43315 -0.0741237 0.106811 0
M  V30 13 C 1.94175 -1.2914 -0.287212 0
M  V30 14 C 3.28388 -1.40359 -0.647372 0
M  V30 15 C 4.11017 -0.282195 -0.608464 0
M  V30 16 C 3.55957 0.91289 -0.208573 0
M  V30 17 N -3.22063 -2.55976 1.01119 0
M  V30 18 H -2.30823 2.7825 -0.751875 0
M  V30 19 H -1.63995 1.88833 -2.12965 0
M  V30 20 H -0.797342 -1.42117 1.19352 0
M  V30 21 H -0.55504 2.39909 1.15441 0
M  V30 22 H 1.84586 3.08729 0.694726 0
M  V30 23 H 1.29158 -2.1439 -0.313145 0
M  V30 24 H 3.71351 -2.33822 -0.958773 0
M  V30 25 H 5.16319 -0.334253 -0.883937 0
M  V30 26 H 4.16743 1.82635 -0.161401 0
M  V30 27 H -2.58862 -3.30588 0.700393 0
M  V30 28 H -3.79568 -2.68473 1.84987 0
M  V30 END ATOM
M  V30 BEGIN BOND
M  V30 1 1 1 2
M  V30 2 2 2 3
M  V30 3 1 3 4
M  V30 4 2 4 5
M  V30 5 1 5 6
M  V30 6 2 6 7
M  V30 7 1 7 8
M  V30 8 2 8 9
M  V30 9 1 9 10
M  V30 10 1 10 11
M  V30 11 2 11 12
M  V30 12 1 12 13
M  V30 13 2 13 14
M  V30 14 1 14 15
M  V30 15 2 15 16
M  V30 16 1 5 17
M  V30 17 1 6 2
M  V30 18 1 12 8
M  V30 19 1 16 11
M  V30 20 1 1 18
M  V30 21 1 1 19
M  V30 22 1 7 20
M  V30 23 1 9 21
M  V30 24 1 10 22
M  V30 25 1 13 23
M  V30 26 1 14 24
M  V30 27 1 15 25
M  V30 28 1 16 26
M  V30 29 1 17 27
M  V30 30 1 17 28
M  V30 END BOND
M  V30 END CTAB
M  END
