
     RDKit          3D

  0  0  0  0  0  0  0  0  0  0999 V3000
M  V30 BEGIN CTAB
M  V30 COUNTS 28 29 0 0 0
M  V30 BEGIN ATOM
M  V30 1 N 4.34281 0.377751 2.00757 0
M  V30 2 C 3.75825 0.060247 0.739278 0
M  V30 3 C 4.54265 -0.1785 -0.370277 0
M  V30 4 C 3.94674 -0.481606 -1.57625 0
M  V30 5 C 2.56746 -0.557078 -1.7198 0
M  V30 6 C 1.77821 -0.319216 -0.613342 0
M  V30 7 C 2.38199 -0.0140848 0.600193 0
M  V30 8 N 0.338943 -0.379846 -0.686437 0
M  V30 9 N -0.300086 0.384964 0.071019 0
M  V30 10 C -1.72154 0.460777 0.134207 0
M  V30 11 C -2.50357 -0.607845 -0.248927 0
M  V30 12 C -3.87134 -0.545656 -0.192168 0
M  V30 13 N -4.65615 -1.68372 -0.601375 0
M  V30 14 C -4.46911 0.608926 0.256966 0
M  V30 15 C -3.68459 1.67311 0.638371 0
M  V30 16 C -2.308 1.62104 0.585205 0
M  V30 17 H 4.82721 -0.326142 2.60387 0
M  V30 18 H 4.29942 1.35843 2.38559 0
M  V30 19 H 5.62126 -0.131772 -0.310021 0
M  V30 20 H 4.54337 -0.67239 -2.45902 0
M  V30 21 H 2.126 -0.796667 -2.67686 0
M  V30 22 H 1.7265 0.162462 1.4304 0
M  V30 23 H -2.0384 -1.52233 -0.604448 0
M  V30 24 H -5.28267 -2.17213 0.0646419 0
M  V30 25 H -4.60918 -2.04114 -1.58228 0
M  V30 26 H -5.55288 0.681843 0.310818 0
M  V30 27 H -4.12349 2.5955 0.996258 0
M  V30 28 H -1.67981 2.44507 0.880037 0
M  V30 END ATOM
M  V30 BEGIN BOND
M  V30 1 1 1 2
M  V30 2 2 2 3
M  V30 3 1 3 4
M  V30 4 2 4 5
M  V30 5 1 5 6
M  V30 6 2 6 7
M  V30 7 1 6 8
M  V30 8 2 8 9
M  V30 9 1 9 10
M  V30 10 2 10 11
M  V30 11 1 11 12
M  V30 12 1 12 13
M  V30 13 2 12 14
M  V30 14 1 14 15
M  V30 15 2 15 16
M  V30 16 1 7 2
M  V30 17 1 16 10
M  V30 18 1 1 17
M  V30 19 1 1 18
M  V30 20 1 3 19
M  V30 21 1 4 20
M  V30 22 1 5 21
M  V30 23 1 7 22
M  V30 24 1 11 23
M  V30 25 1 13 24
M  V30 26 1 13 25
M  V30 27 1 14 26
M  V30 28 1 15 27
M  V30 29 1 16 28
M  V30 END BOND
M  V30 END CTAB
M  END
