
     RDKit          3D

  0  0  0  0  0  0  0  0  0  0999 V3000
M  V30 BEGIN CTAB
M  V30 COUNTS 28 30 0 0 0
M  V30 BEGIN ATOM
M  V30 1 N 4.38946 0.114151 0.377877 0
M  V30 2 C 3.06777 -0.351121 0.141573 0
M  V30 3 C 2.04185 0.564269 0.22025 0
M  V30 4 N 2.33107 1.90594 0.526538 0
M  V30 5 C 0.747688 0.134653 -0.00581345 0
M  V30 6 C 0.490551 -1.19436 -0.306084 0
M  V30 7 C 1.51014 -2.10761 -0.384991 0
M  V30 8 Cl 1.13761 -3.76521 -0.76502 0
M  V30 9 C 2.82042 -1.67188 -0.155959 0
M  V30 10 C -0.906682 -1.58008 -0.534106 0
M  V30 11 O -1.19365 -2.77666 -0.810354 0
M  V30 12 C -2.00056 -0.624069 -0.454325 0
M  V30 13 C -1.71623 0.695459 -0.153108 0
M  V30 14 C -2.72151 1.63138 -0.0680192 0
M  V30 15 C -4.04468 1.29606 -0.277808 0
M  V30 16 C -4.31196 -0.0340587 -0.579386 0
M  V30 17 C -3.31675 -0.980918 -0.667792 0
M  V30 18 C -0.342912 1.10143 0.0765286 0
M  V30 19 O -0.04649 2.30677 0.355592 0
M  V30 20 H 4.60235 0.885641 1.03733 0
M  V30 21 H 5.20791 -0.324032 -0.12375 0
M  V30 22 H 2.6773 2.61578 -0.127915 0
M  V30 23 H 2.17499 2.21056 1.53302 0
M  V30 24 H 3.63676 -2.3869 -0.215804 0
M  V30 25 H -2.51006 2.68522 0.170891 0
M  V30 26 H -4.85169 2.0189 -0.215339 0
M  V30 27 H -5.33875 -0.338806 -0.751335 0
M  V30 28 H -3.53394 -2.03052 -0.906442 0
M  V30 END ATOM
M  V30 BEGIN BOND
M  V30 1 1 1 2
M  V30 2 2 2 3
M  V30 3 1 3 4
M  V30 4 1 3 5
M  V30 5 2 5 6
M  V30 6 1 6 7
M  V30 7 1 7 8
M  V30 8 2 7 9
M  V30 9 1 6 10
M  V30 10 2 10 11
M  V30 11 1 10 12
M  V30 12 2 12 13
M  V30 13 1 13 14
M  V30 14 2 14 15
M  V30 15 1 15 16
M  V30 16 2 16 17
M  V30 17 1 13 18
M  V30 18 2 18 19
M  V30 19 1 9 2
M  V30 20 1 17 12
M  V30 21 1 18 5
M  V30 22 1 1 20
M  V30 23 1 1 21
M  V30 24 1 4 22
M  V30 25 1 4 23
M  V30 26 1 9 24
M  V30 27 1 14 25
M  V30 28 1 15 26
M  V30 29 1 16 27
M  V30 30 1 17 28
M  V30 END BOND
M  V30 END CTAB
M  END
