
     RDKit          3D

  0  0  0  0  0  0  0  0  0  0999 V3000
M  V30 BEGIN CTAB
M  V30 COUNTS 56 55 0 0 0
M  V30 BEGIN ATOM
M  V30 1 N -7.61581 1.67168 1.59762 0
M  V30 2 C -8.18074 0.528608 0.93982 0
M  V30 3 C -7.67478 0.317169 -0.469036 0
M  V30 4 C -6.15352 0.105043 -0.352814 0
M  V30 5 N -5.56141 -0.102982 -1.63307 0
M  V30 6 C -4.16979 -0.334825 -1.55138 0
M  V30 7 C -3.40332 0.895778 -1.10957 0
M  V30 8 C -1.901 0.564791 -1.08462 0
M  V30 9 N -1.69214 -0.50705 -0.141551 0
M  V30 10 C -0.366356 -1.02522 -0.188068 0
M  V30 11 C 0.632582 -0.0365601 0.309171 0
M  V30 12 N 1.99671 -0.601953 0.174912 0
M  V30 13 C 2.26651 -1.66787 1.08326 0
M  V30 14 C 3.45332 -2.47696 0.702859 0
M  V30 15 C 4.71436 -1.71901 0.597724 0
M  V30 16 N 4.69278 -0.698947 -0.391174 0
M  V30 17 C 5.93923 -0.0352857 -0.602696 0
M  V30 18 C 6.40542 0.783381 0.556523 0
M  V30 19 C 7.73187 1.42537 0.15642 0
M  V30 20 N 8.27669 2.2282 1.20529 0
M  V30 21 H -7.92952 2.5779 1.23649 0
M  V30 22 H -6.63185 1.5619 1.8445 0
M  V30 23 H -9.28963 0.530239 0.987675 0
M  V30 24 H -7.85191 -0.38121 1.52735 0
M  V30 25 H -8.19287 -0.560229 -0.86556 0
M  V30 26 H -7.89791 1.15069 -1.15132 0
M  V30 27 H -6.04109 -0.773072 0.331899 0
M  V30 28 H -5.75827 1.03401 0.0976152 0
M  V30 29 H -6.09254 -0.680537 -2.30677 0
M  V30 30 H -3.87106 -1.17856 -0.871387 0
M  V30 31 H -3.80931 -0.638965 -2.55608 0
M  V30 32 H -3.69092 1.178 -0.0825677 0
M  V30 33 H -3.528 1.76798 -1.74469 0
M  V30 34 H -1.51358 0.296056 -2.07496 0
M  V30 35 H -1.35206 1.47452 -0.751609 0
M  V30 36 H -1.82796 -0.117683 0.836419 0
M  V30 37 H -0.353356 -1.98502 0.399096 0
M  V30 38 H -0.0695075 -1.27745 -1.2432 0
M  V30 39 H 0.595787 0.86015 -0.322821 0
M  V30 40 H 0.430443 0.179066 1.37956 0
M  V30 41 H 2.6012 0.25487 0.404398 0
M  V30 42 H 2.44412 -1.28156 2.13671 0
M  V30 43 H 1.39844 -2.36883 1.08977 0
M  V30 44 H 3.54795 -3.34347 1.43936 0
M  V30 45 H 3.22414 -3.01241 -0.279248 0
M  V30 46 H 5.61076 -2.35728 0.397637 0
M  V30 47 H 4.97773 -1.20282 1.57367 0
M  V30 48 H 4.14627 -0.93802 -1.21727 0
M  V30 49 H 5.81808 0.597159 -1.53571 0
M  V30 50 H 6.76726 -0.745406 -0.874447 0
M  V30 51 H 5.69915 1.56467 0.858158 0
M  V30 52 H 6.58388 0.130514 1.43256 0
M  V30 53 H 8.45915 0.679356 -0.15666 0
M  V30 54 H 7.52185 2.09415 -0.723023 0
M  V30 55 H 8.95767 2.95217 0.85595 0
M  V30 56 H 7.52688 2.64575 1.78207 0
M  V30 END ATOM
M  V30 BEGIN BOND
M  V30 1 1 1 2
M  V30 2 1 2 3
M  V30 3 1 3 4
M  V30 4 1 4 5
M  V30 5 1 5 6
M  V30 6 1 6 7
M  V30 7 1 7 8
M  V30 8 1 8 9
M  V30 9 1 9 10
M  V30 10 1 10 11
M  V30 11 1 11 12
M  V30 12 1 12 13
M  V30 13 1 13 14
M  V30 14 1 14 15
M  V30 15 1 15 16
M  V30 16 1 16 17
M  V30 17 1 17 18
M  V30 18 1 18 19
M  V30 19 1 19 20
M  V30 20 1 1 21
M  V30 21 1 1 22
M  V30 22 1 2 23
M  V30 23 1 2 24
M  V30 24 1 3 25
M  V30 25 1 3 26
M  V30 26 1 4 27
M  V30 27 1 4 28
M  V30 28 1 5 29
M  V30 29 1 6 30
M  V30 30 1 6 31
M  V30 31 1 7 32
M  V30 32 1 7 33
M  V30 33 1 8 34
M  V30 34 1 8 35
M  V30 35 1 9 36
M  V30 36 1 10 37
M  V30 37 1 10 38
M  V30 38 1 11 39
M  V30 39 1 11 40
M  V30 40 1 12 41
M  V30 41 1 13 42
M  V30 42 1 13 43
M  V30 43 1 14 44
M  V30 44 1 14 45
M  V30 45 1 15 46
M  V30 46 1 15 47
M  V30 47 1 16 48
M  V30 48 1 17 49
M  V30 49 1 17 50
M  V30 50 1 18 51
M  V30 51 1 18 52
M  V30 52 1 19 53
M  V30 53 1 19 54
M  V30 54 1 20 55
M  V30 55 1 20 56
M  V30 END BOND
M  V30 END CTAB
M  END
