
     RDKit          3D

  0  0  0  0  0  0  0  0  0  0999 V3000
M  V30 BEGIN CTAB
M  V30 COUNTS 141 144 0 0 0
M  V30 BEGIN ATOM
M  V30 1 C -11.2729 -1.32714 -2.93571 0 CFG=1
M  V30 2 N -12.0137 -2.01611 -1.88263 0
M  V30 3 C -12.3027 -0.550896 -3.72121 0
M  V30 4 O -13.0085 0.361861 -2.95307 0
M  V30 5 C -10.1657 -0.524129 -2.42555 0
M  V30 6 O -9.37826 0.0332357 -3.21943 0
M  V30 7 N -9.94698 -0.357184 -1.03184 0
M  V30 8 C -8.79399 0.450552 -0.568095 0 CFG=1
M  V30 9 C -9.34385 1.82074 -0.144302 0
M  V30 10 C -10.3539 1.73711 0.922406 0
M  V30 11 C -10.9668 3.04087 1.36389 0
M  V30 12 N -11.6682 3.75539 0.329259 0
M  V30 13 C -12.8716 3.3233 -0.252245 0
M  V30 14 N -13.4083 4.04199 -1.35309 0
M  V30 15 N -13.5452 2.29885 0.148197 0
M  V30 16 C -7.99293 -0.219842 0.443292 0
M  V30 17 O -8.638 -0.709625 1.43769 0
M  V30 18 N -6.6146 -0.388603 0.438379 0
M  V30 19 C -5.68281 -0.984475 1.31718 0 CFG=1
M  V30 20 C -5.4348 -2.46248 1.16564 0
M  V30 21 C -4.91667 -2.97532 -0.100441 0
M  V30 22 C -6.6604 -3.26079 1.57591 0
M  V30 23 C -4.42413 -0.200131 1.39186 0
M  V30 24 O -4.44094 1.06334 1.13215 0
M  V30 25 N -3.15696 -0.702315 1.7184 0
M  V30 26 C -1.94141 0.125834 1.76215 0 CFG=1
M  V30 27 C -1.28828 0.182624 3.06867 0
M  V30 28 C -0.855232 -1.06654 3.69076 0
M  V30 29 C -1.80234 -1.73854 4.47572 0
M  V30 30 C -1.47333 -2.91328 5.12809 0
M  V30 31 C -0.2283 -3.44611 5.02051 0
M  V30 32 O 0.0519635 -4.63841 5.70024 0
M  V30 33 C 0.686895 -2.78465 4.25041 0
M  V30 34 C 0.383056 -1.61497 3.59643 0
M  V30 35 C -1.11521 -0.0421058 0.579759 0
M  V30 36 O -1.45261 -0.84347 -0.318916 0
M  V30 37 N 0.0784132 0.689876 0.394277 0
M  V30 38 C 0.903496 0.595163 -0.774755 0 CFG=1
M  V30 39 C 0.971519 1.84524 -1.60329 0
M  V30 40 C -0.404871 2.24079 -2.09043 0
M  V30 41 C 1.69503 2.98791 -0.994301 0
M  V30 42 C 2.25955 0.0450035 -0.463929 0
M  V30 43 O 2.49362 -0.445625 0.667598 0
M  V30 44 N 3.28499 0.0630413 -1.39898 0
M  V30 45 C 4.64594 -0.506327 -1.06246 0 CFG=1
M  V30 46 C 5.14254 -1.27682 -2.18231 0
M  V30 47 C 6.36382 -2.06442 -2.06119 0
M  V30 48 C 6.96757 -2.64939 -3.18976 0
M  V30 49 N 8.01288 -3.34554 -2.7779 0
M  V30 50 C 8.12959 -3.25161 -1.45762 0
M  V30 51 N 7.12656 -2.47626 -1.05264 0
M  V30 52 C 5.3933 0.621309 -0.519033 0
M  V30 53 O 4.69089 1.23906 0.433584 0
M  V30 54 N 6.62251 1.22727 -0.729627 0
M  V30 55 C 7.01923 2.37739 0.172834 0
M  V30 56 C 7.95051 3.21769 -0.621377 0
M  V30 57 C 7.85135 2.69389 -2.02994 0
M  V30 58 C 7.69026 1.16844 -1.67952 0 CFG=1
M  V30 59 C 8.98262 0.665754 -1.25137 0
M  V30 60 O 9.90047 0.635411 -2.1728 0
M  V30 61 N 9.40585 0.20552 0.00481418 0
M  V30 62 C 10.8008 -0.25312 0.13822 0 CFG=1
M  V30 63 C 11.5343 0.842997 0.902342 0
M  V30 64 C 12.9459 0.564697 1.11649 0
M  V30 65 C 13.8416 0.927823 0.126334 0
M  V30 66 C 15.2077 0.726619 0.21802 0
M  V30 67 C 15.6919 0.124687 1.37861 0
M  V30 68 C 14.8127 -0.236819 2.36268 0
M  V30 69 C 13.4445 -0.0287097 2.25701 0
M  V30 70 C 10.8753 -1.51027 0.884637 0
M  V30 71 O 12.0063 -2.29289 1.01348 0
M  V30 72 O 9.78237 -1.89519 1.45192 0
M  V30 73 H -10.9244 -2.13807 -3.6355 0
M  V30 74 H -13.0024 -2.19534 -2.18382 0
M  V30 75 H -11.5161 -2.88431 -1.57307 0
M  V30 76 H -11.8448 -0.0734827 -4.61531 0
M  V30 77 H -13.0353 -1.30538 -4.10954 0
M  V30 78 H -13.1623 -0.030171 -2.04437 0
M  V30 79 H -10.6083 -0.806441 -0.382808 0
M  V30 80 H -8.20524 0.667116 -1.46906 0
M  V30 81 H -8.45869 2.40477 0.167517 0
M  V30 82 H -9.72517 2.28164 -1.07549 0
M  V30 83 H -11.1721 1.02129 0.752416 0
M  V30 84 H -9.85 1.34077 1.8598 0
M  V30 85 H -11.721 2.86802 2.1932 0
M  V30 86 H -10.2285 3.7256 1.8304 0
M  V30 87 H -11.2416 4.65335 -0.00678957 0
M  V30 88 H -13.6096 5.05923 -1.25394 0
M  V30 89 H -13.6204 3.61987 -2.28089 0
M  V30 90 H -14.4373 2.00753 -0.306346 0
M  V30 91 H -6.1492 0.0375486 -0.446146 0
M  V30 92 H -6.13228 -0.943738 2.34174 0
M  V30 93 H -4.70312 -2.72165 1.99415 0
M  V30 94 H -5.48722 -3.84941 -0.53905 0
M  V30 95 H -3.88957 -3.40546 0.0767041 0
M  V30 96 H -4.70626 -2.22091 -0.903235 0
M  V30 97 H -6.36831 -4.29901 1.89553 0
M  V30 98 H -6.99626 -2.76641 2.52968 0
M  V30 99 H -7.47121 -3.26091 0.834263 0
M  V30 100 H -3.07064 -1.7216 1.94614 0
M  V30 101 H -2.3975 1.18419 1.61441 0
M  V30 102 H -0.348082 0.805834 2.94975 0
M  V30 103 H -1.90651 0.812203 3.75832 0
M  V30 104 H -2.80517 -1.36547 4.59743 0
M  V30 105 H -2.22749 -3.42346 5.74792 0
M  V30 106 H 0.976583 -5.06377 5.63732 0
M  V30 107 H 1.68436 -3.2289 4.18876 0
M  V30 108 H 1.14916 -1.14472 3.01426 0
M  V30 109 H 0.442951 1.37374 1.13322 0
M  V30 110 H 0.424556 -0.173453 -1.44492 0
M  V30 111 H 1.53224 1.5757 -2.54356 0
M  V30 112 H -0.36735 2.81134 -3.04108 0
M  V30 113 H -1.01362 1.33518 -2.31755 0
M  V30 114 H -0.957823 2.83682 -1.35563 0
M  V30 115 H 1.78579 2.97714 0.111366 0
M  V30 116 H 2.74532 3.0826 -1.39822 0
M  V30 117 H 1.1967 3.97737 -1.21688 0
M  V30 118 H 3.19628 0.434095 -2.33495 0
M  V30 119 H 4.41721 -1.18118 -0.182345 0
M  V30 120 H 5.26621 -0.66051 -3.1306 0
M  V30 121 H 4.31895 -2.00582 -2.49855 0
M  V30 122 H 6.65587 -2.563 -4.21487 0
M  V30 123 H 8.66368 -3.89905 -3.39567 0
M  V30 124 H 8.8803 -3.71158 -0.812123 0
M  V30 125 H 6.07241 2.92637 0.378977 0
M  V30 126 H 7.40289 1.99886 1.10259 0
M  V30 127 H 8.98613 3.25846 -0.227496 0
M  V30 128 H 7.58575 4.27708 -0.583036 0
M  V30 129 H 8.72069 2.85656 -2.64969 0
M  V30 130 H 6.88405 2.99311 -2.45572 0
M  V30 131 H 7.40635 0.744005 -2.64843 0
M  V30 132 H 8.80847 0.165427 0.819619 0
M  V30 133 H 11.2777 -0.320836 -0.882075 0
M  V30 134 H 11.361 1.82323 0.364172 0
M  V30 135 H 11.0146 0.907683 1.90355 0
M  V30 136 H 13.4744 1.39611 -0.774142 0
M  V30 137 H 15.899 1.03011 -0.584156 0
M  V30 138 H 16.761 -0.0372171 1.44711 0
M  V30 139 H 15.1632 -0.704073 3.2643 0
M  V30 140 H 12.8005 -0.334893 3.06343 0
M  V30 141 H 12.3231 -2.77093 0.169976 0
M  V30 END ATOM
M  V30 BEGIN BOND
M  V30 1 1 1 2
M  V30 2 1 1 3
M  V30 3 1 3 4
M  V30 4 1 1 5
M  V30 5 2 5 6
M  V30 6 1 5 7
M  V30 7 1 7 8
M  V30 8 1 8 9
M  V30 9 1 9 10
M  V30 10 1 10 11
M  V30 11 1 11 12
M  V30 12 1 12 13
M  V30 13 1 13 14
M  V30 14 2 13 15 CFG=2
M  V30 15 1 8 16
M  V30 16 2 16 17
M  V30 17 1 16 18
M  V30 18 1 18 19
M  V30 19 1 19 20
M  V30 20 1 20 21
M  V30 21 1 20 22
M  V30 22 1 19 23
M  V30 23 2 23 24
M  V30 24 1 23 25
M  V30 25 1 25 26
M  V30 26 1 26 27
M  V30 27 1 27 28
M  V30 28 2 28 29
M  V30 29 1 29 30
M  V30 30 2 30 31
M  V30 31 1 31 32
M  V30 32 1 31 33
M  V30 33 2 33 34
M  V30 34 1 26 35
M  V30 35 2 35 36
M  V30 36 1 35 37
M  V30 37 1 37 38
M  V30 38 1 38 39
M  V30 39 1 39 40
M  V30 40 1 39 41
M  V30 41 1 38 42
M  V30 42 2 42 43
M  V30 43 1 42 44
M  V30 44 1 44 45
M  V30 45 1 45 46
M  V30 46 1 46 47
M  V30 47 2 47 48
M  V30 48 1 48 49
M  V30 49 1 49 50
M  V30 50 2 50 51
M  V30 51 1 45 52
M  V30 52 2 52 53
M  V30 53 1 52 54
M  V30 54 1 54 55
M  V30 55 1 55 56
M  V30 56 1 56 57
M  V30 57 1 57 58
M  V30 58 1 58 59
M  V30 59 2 59 60
M  V30 60 1 59 61
M  V30 61 1 61 62
M  V30 62 1 62 63
M  V30 63 1 63 64
M  V30 64 2 64 65
M  V30 65 1 65 66
M  V30 66 2 66 67
M  V30 67 1 67 68
M  V30 68 2 68 69
M  V30 69 1 62 70
M  V30 70 1 70 71
M  V30 71 2 70 72
M  V30 72 1 34 28
M  V30 73 1 51 47
M  V30 74 1 58 54
M  V30 75 1 69 64
M  V30 76 1 1 73 CFG=3
M  V30 77 1 2 74
M  V30 78 1 2 75
M  V30 79 1 3 76
M  V30 80 1 3 77
M  V30 81 1 4 78
M  V30 82 1 7 79
M  V30 83 1 8 80 CFG=3
M  V30 84 1 9 81
M  V30 85 1 9 82
M  V30 86 1 10 83
M  V30 87 1 10 84
M  V30 88 1 11 85
M  V30 89 1 11 86
M  V30 90 1 12 87
M  V30 91 1 14 88
M  V30 92 1 14 89
M  V30 93 1 15 90
M  V30 94 1 18 91
M  V30 95 1 19 92 CFG=1
M  V30 96 1 20 93
M  V30 97 1 21 94
M  V30 98 1 21 95
M  V30 99 1 21 96
M  V30 100 1 22 97
M  V30 101 1 22 98
M  V30 102 1 22 99
M  V30 103 1 25 100
M  V30 104 1 26 101 CFG=3
M  V30 105 1 27 102
M  V30 106 1 27 103
M  V30 107 1 29 104
M  V30 108 1 30 105
M  V30 109 1 32 106
M  V30 110 1 33 107
M  V30 111 1 34 108
M  V30 112 1 37 109
M  V30 113 1 38 110 CFG=3
M  V30 114 1 39 111
M  V30 115 1 40 112
M  V30 116 1 40 113
M  V30 117 1 40 114
M  V30 118 1 41 115
M  V30 119 1 41 116
M  V30 120 1 41 117
M  V30 121 1 44 118
M  V30 122 1 45 119 CFG=1
M  V30 123 1 46 120
M  V30 124 1 46 121
M  V30 125 1 48 122
M  V30 126 1 49 123
M  V30 127 1 50 124
M  V30 128 1 55 125
M  V30 129 1 55 126
M  V30 130 1 56 127
M  V30 131 1 56 128
M  V30 132 1 57 129
M  V30 133 1 57 130
M  V30 134 1 58 131 CFG=3
M  V30 135 1 61 132
M  V30 136 1 62 133 CFG=3
M  V30 137 1 63 134
M  V30 138 1 63 135
M  V30 139 1 65 136
M  V30 140 1 66 137
M  V30 141 1 67 138
M  V30 142 1 68 139
M  V30 143 1 69 140
M  V30 144 1 71 141
M  V30 END BOND
M  V30 END CTAB
M  END
