
     RDKit          3D

  0  0  0  0  0  0  0  0  0  0999 V3000
M  V30 BEGIN CTAB
M  V30 COUNTS 58 58 0 0 0
M  V30 BEGIN ATOM
M  V30 1 N 5.57117 -0.0225292 1.63686 0
M  V30 2 C 6.15183 -0.782828 0.649236 0
M  V30 3 C 5.61115 -0.641321 -0.724279 0
M  V30 4 C 4.18194 -1.00576 -0.944613 0
M  V30 5 C 3.24063 -0.200199 -0.144775 0
M  V30 6 C 1.73924 -0.673978 -0.52527 0
M  V30 7 N 0.962143 0.116102 0.254849 0
M  V30 8 C -0.419543 0.261858 0.324058 0 CFG=1
M  V30 9 C -0.987965 1.026 -0.854305 0
M  V30 10 C -0.49603 2.42172 -0.989594 0
M  V30 11 C -0.86332 3.32249 0.15801 0
M  V30 12 C -2.33293 3.54718 0.318973 0
M  V30 13 N -2.81799 4.17405 -0.906401 0
M  V30 14 C -1.14672 -1.03997 0.455166 0
M  V30 15 O -0.430049 -2.08479 0.324021 0
M  V30 16 N -2.5144 -1.24651 0.702946 0
M  V30 17 C -3.60895 -0.34366 0.975217 0
M  V30 18 C -4.36008 -1.06314 2.07564 0
M  V30 19 C -4.05375 -2.52207 1.86687 0
M  V30 20 C -3.12404 -2.56163 0.689632 0 CFG=1
M  V30 21 C -3.94904 -2.79938 -0.53358 0
M  V30 22 O -4.06197 -1.90212 -1.5819 0
M  V30 23 O -4.60554 -3.8819 -0.663783 0
M  V30 24 C 1.77933 -0.562653 -1.96286 0
M  V30 25 O 1.72468 -1.7021 -2.8078 0
M  V30 26 O 1.86186 0.499219 -2.58561 0
M  V30 27 H 5.60322 -0.373535 2.55205 0
M  V30 28 H 5.22667 0.846649 1.40496 0
M  V30 29 H 7.24637 -0.495887 0.599495 0
M  V30 30 H 6.10836 -1.86692 0.98207 0
M  V30 31 H 6.27091 -1.2782 -1.39614 0
M  V30 32 H 5.75865 0.393487 -1.12924 0
M  V30 33 H 3.94913 -1.02051 -2.03547 0
M  V30 34 H 4.07973 -2.08419 -0.627324 0
M  V30 35 H 3.20849 0.85964 -0.434266 0
M  V30 36 H 3.2175 -0.373118 0.9315 0
M  V30 37 H 1.78155 -1.78113 -0.207832 0
M  V30 38 H 1.4505 0.518216 1.1266 0
M  V30 39 H -0.667275 0.890423 1.23063 0
M  V30 40 H -0.831979 0.470298 -1.77635 0
M  V30 41 H -2.09801 1.12823 -0.626987 0
M  V30 42 H 0.572054 2.5375 -1.26523 0
M  V30 43 H -1.04107 2.86398 -1.88521 0
M  V30 44 H -0.382153 4.32806 0.047171 0
M  V30 45 H -0.445091 2.88709 1.11095 0
M  V30 46 H -2.48778 4.21166 1.18966 0
M  V30 47 H -2.93672 2.64697 0.4537 0
M  V30 48 H -3.5505 4.88495 -0.675094 0
M  V30 49 H -2.04705 4.59902 -1.47138 0
M  V30 50 H -4.23197 -0.161176 0.0954472 0
M  V30 51 H -3.24366 0.604823 1.442 0
M  V30 52 H -5.44257 -0.839069 2.05642 0
M  V30 53 H -3.9781 -0.712086 3.06627 0
M  V30 54 H -3.61391 -2.95208 2.78792 0
M  V30 55 H -5.0242 -3.03397 1.60767 0
M  V30 56 H -2.35144 -3.3649 0.797555 0
M  V30 57 H -4.21478 -2.22131 -2.52949 0
M  V30 58 H 1.06346 -2.44499 -2.62875 0
M  V30 END ATOM
M  V30 BEGIN BOND
M  V30 1 1 1 2
M  V30 2 1 2 3
M  V30 3 1 3 4
M  V30 4 1 4 5
M  V30 5 1 5 6
M  V30 6 1 6 7
M  V30 7 1 7 8
M  V30 8 1 8 9
M  V30 9 1 9 10
M  V30 10 1 10 11
M  V30 11 1 11 12
M  V30 12 1 12 13
M  V30 13 1 8 14
M  V30 14 2 14 15
M  V30 15 1 14 16
M  V30 16 1 16 17
M  V30 17 1 17 18
M  V30 18 1 18 19
M  V30 19 1 19 20
M  V30 20 1 20 21
M  V30 21 1 21 22
M  V30 22 2 21 23
M  V30 23 1 6 24
M  V30 24 1 24 25
M  V30 25 2 24 26
M  V30 26 1 20 16
M  V30 27 1 1 27
M  V30 28 1 1 28
M  V30 29 1 2 29
M  V30 30 1 2 30
M  V30 31 1 3 31
M  V30 32 1 3 32
M  V30 33 1 4 33
M  V30 34 1 4 34
M  V30 35 1 5 35
M  V30 36 1 5 36
M  V30 37 1 6 37
M  V30 38 1 7 38
M  V30 39 1 8 39 CFG=1
M  V30 40 1 9 40
M  V30 41 1 9 41
M  V30 42 1 10 42
M  V30 43 1 10 43
M  V30 44 1 11 44
M  V30 45 1 11 45
M  V30 46 1 12 46
M  V30 47 1 12 47
M  V30 48 1 13 48
M  V30 49 1 13 49
M  V30 50 1 17 50
M  V30 51 1 17 51
M  V30 52 1 18 52
M  V30 53 1 18 53
M  V30 54 1 19 54
M  V30 55 1 19 55
M  V30 56 1 20 56 CFG=1
M  V30 57 1 22 57
M  V30 58 1 25 58
M  V30 END BOND
M  V30 END CTAB
M  END
