
     RDKit          3D

  0  0  0  0  0  0  0  0  0  0999 V3000
M  V30 BEGIN CTAB
M  V30 COUNTS 25 25 0 0 0
M  V30 BEGIN ATOM
M  V30 1 C 2.91586 0.379701 -1.41636 0
M  V30 2 C 2.97581 -0.655143 -0.310734 0
M  V30 3 S 2.02337 -0.103041 1.08708 0
M  V30 4 O 2.58449 1.15133 1.67814 0
M  V30 5 O 2.13814 -1.18292 2.13928 0
M  V30 6 C 0.347291 0.143742 0.653487 0
M  V30 7 C -0.266431 1.38121 0.78262 0
M  V30 8 C -1.59029 1.58266 0.441813 0
M  V30 9 C -2.36337 0.542086 -0.0478779 0
M  V30 10 C -1.76548 -0.689209 -0.18014 0
M  V30 11 C -0.445802 -0.880819 0.1619 0
M  V30 12 F 0.164304 -2.09476 0.0376107 0
M  V30 13 N -2.52848 -1.77493 -0.678157 0
M  V30 14 N -3.72606 0.73495 -0.402334 0
M  V30 15 H 2.91198 1.38301 -0.91283 0
M  V30 16 H 2.00957 0.267771 -2.04782 0
M  V30 17 H 3.83109 0.248277 -2.03202 0
M  V30 18 H 2.57078 -1.63633 -0.628883 0
M  V30 19 H 4.03491 -0.828849 -0.0343328 0
M  V30 20 H 0.323485 2.22148 1.16788 0
M  V30 21 H -2.07574 2.551 0.541333 0
M  V30 22 H -3.1971 -2.23806 -0.00210514 0
M  V30 23 H -2.47374 -2.1361 -1.64271 0
M  V30 24 H -4.07527 1.71687 -0.495238 0
M  V30 25 H -4.32333 -0.0839199 -0.555689 0
M  V30 END ATOM
M  V30 BEGIN BOND
M  V30 1 1 1 2
M  V30 2 1 2 3
M  V30 3 2 3 4
M  V30 4 2 3 5
M  V30 5 1 3 6
M  V30 6 2 6 7
M  V30 7 1 7 8
M  V30 8 2 8 9
M  V30 9 1 9 10
M  V30 10 2 10 11
M  V30 11 1 11 12
M  V30 12 1 10 13
M  V30 13 1 9 14
M  V30 14 1 11 6
M  V30 15 1 1 15
M  V30 16 1 1 16
M  V30 17 1 1 17
M  V30 18 1 2 18
M  V30 19 1 2 19
M  V30 20 1 7 20
M  V30 21 1 8 21
M  V30 22 1 13 22
M  V30 23 1 13 23
M  V30 24 1 14 24
M  V30 25 1 14 25
M  V30 END BOND
M  V30 END CTAB
M  END
