
     RDKit          3D

  0  0  0  0  0  0  0  0  0  0999 V3000
M  V30 BEGIN CTAB
M  V30 COUNTS 36 37 0 0 0
M  V30 BEGIN ATOM
M  V30 1 C -2.8044 -0.203138 -1.12817 0
M  V30 2 C -2.645 -0.32815 0.359819 0
M  V30 3 C -3.33095 -1.59634 0.819073 0
M  V30 4 C -1.20659 -0.402069 0.828224 0
M  V30 5 C -0.46383 0.817889 0.425049 0
M  V30 6 C 0.845654 0.774529 0.0956761 0
M  V30 7 C 1.55542 1.92211 -0.299766 0
M  V30 8 N 2.93565 1.78984 -0.595122 0
M  V30 9 N 0.884995 3.07705 -0.34238 0
M  V30 10 C -0.429166 3.15222 -0.0178035 0
M  V30 11 N -1.04366 4.41035 -0.110913 0
M  V30 12 N -1.08784 2.02859 0.36139 0
M  V30 13 C 1.60034 -0.469158 0.110538 0
M  V30 14 C 1.50074 -1.27273 -1.02972 0
M  V30 15 C 2.1767 -2.45688 -1.14437 0
M  V30 16 C 2.97619 -2.86091 -0.104445 0
M  V30 17 Cl 3.82095 -4.40817 -0.288396 0
M  V30 18 C 3.08928 -2.08365 1.02312 0
M  V30 19 C 2.39945 -0.882896 1.13117 0
M  V30 20 H -3.14509 -1.18917 -1.56178 0
M  V30 21 H -3.67972 0.478014 -1.35543 0
M  V30 22 H -1.8733 0.116612 -1.60616 0
M  V30 23 H -3.14591 0.576678 0.822049 0
M  V30 24 H -2.96754 -1.87454 1.84535 0
M  V30 25 H -3.06949 -2.40544 0.117901 0
M  V30 26 H -4.43889 -1.51583 0.798545 0
M  V30 27 H -1.23306 -0.456571 1.93469 0
M  V30 28 H -0.775189 -1.33873 0.46874 0
M  V30 29 H 3.55495 1.92022 0.271894 0
M  V30 30 H 3.385 1.59569 -1.48736 0
M  V30 31 H -1.0051 4.96403 -0.98523 0
M  V30 32 H -1.55285 4.80773 0.701244 0
M  V30 33 H 0.884112 -0.961742 -1.85432 0
M  V30 34 H 2.07886 -3.06572 -2.05243 0
M  V30 35 H 3.71879 -2.39497 1.83262 0
M  V30 36 H 2.49052 -0.264777 2.01671 0
M  V30 END ATOM
M  V30 BEGIN BOND
M  V30 1 1 1 2
M  V30 2 1 2 3
M  V30 3 1 2 4
M  V30 4 1 4 5
M  V30 5 2 5 6
M  V30 6 1 6 7
M  V30 7 1 7 8
M  V30 8 2 7 9
M  V30 9 1 9 10
M  V30 10 1 10 11
M  V30 11 2 10 12
M  V30 12 1 6 13
M  V30 13 2 13 14
M  V30 14 1 14 15
M  V30 15 2 15 16
M  V30 16 1 16 17
M  V30 17 1 16 18
M  V30 18 2 18 19
M  V30 19 1 12 5
M  V30 20 1 19 13
M  V30 21 1 1 20
M  V30 22 1 1 21
M  V30 23 1 1 22
M  V30 24 1 2 23
M  V30 25 1 3 24
M  V30 26 1 3 25
M  V30 27 1 3 26
M  V30 28 1 4 27
M  V30 29 1 4 28
M  V30 30 1 8 29
M  V30 31 1 8 30
M  V30 32 1 11 31
M  V30 33 1 11 32
M  V30 34 1 14 33
M  V30 35 1 15 34
M  V30 36 1 18 35
M  V30 37 1 19 36
M  V30 END BOND
M  V30 END CTAB
M  END
