
     RDKit          3D

  0  0  0  0  0  0  0  0  0  0999 V3000
M  V30 BEGIN CTAB
M  V30 COUNTS 50 53 0 0 0
M  V30 BEGIN ATOM
M  V30 1 O 2.80954 0.873844 1.51744 0
M  V30 2 C 2.21526 0.854533 0.456178 0
M  V30 3 N 0.94659 0.232609 0.418595 0
M  V30 4 C 0.210223 0.186538 -0.816045 0
M  V30 5 C -0.934134 -0.793611 -0.5954 0
M  V30 6 C -1.83533 -0.351579 0.50509 0
M  V30 7 C -1.06028 0.152363 1.67316 0
M  V30 8 C 0.361516 -0.360077 1.59018 0
M  V30 9 C -2.85119 0.616176 0.0171139 0
M  V30 10 C -2.76079 1.97502 -0.195461 0
M  V30 11 C -3.85699 2.6722 -0.660958 0
M  V30 12 C -5.05919 2.01747 -0.91996 0
M  V30 13 C -5.13565 0.673997 -0.705732 0
M  V30 14 C -4.04729 -0.0344295 -0.240677 0
M  V30 15 C -3.91631 -1.46561 0.0546678 0 CFG=2
M  V30 16 C -2.72418 -1.47763 1.0128 0 CFG=2
M  V30 17 O -3.24506 -1.10634 2.26075 0
M  V30 18 N -3.57914 -2.28569 -1.05735 0
M  V30 19 C 2.80996 1.46836 -0.742019 0
M  V30 20 C 4.2752 1.6457 -0.614097 0
M  V30 21 C 4.96133 0.300895 -0.489806 0
M  V30 22 C 5.31517 -0.368616 -1.64874 0
M  V30 23 S 6.06318 -1.76821 -1.02393 0
M  V30 24 C 5.89005 -1.43489 0.639786 0
M  V30 25 N 5.2686 -0.26952 0.628173 0
M  V30 26 N 6.29884 -2.19547 1.80149 0
M  V30 27 H -0.157284 1.19997 -1.0256 0
M  V30 28 H 0.815229 -0.175714 -1.67988 0
M  V30 29 H -1.51767 -0.791413 -1.54063 0
M  V30 30 H -0.510971 -1.78335 -0.363209 0
M  V30 31 H -1.46091 -0.221719 2.6547 0
M  V30 32 H -1.07714 1.26248 1.75744 0
M  V30 33 H 0.305196 -1.47125 1.47778 0
M  V30 34 H 0.929897 -0.127524 2.51631 0
M  V30 35 H -1.86034 2.55364 -0.0168013 0
M  V30 36 H -3.77922 3.74463 -0.826732 0
M  V30 37 H -5.86638 2.62294 -1.27907 0
M  V30 38 H -6.09497 0.186196 -0.918542 0
M  V30 39 H -4.80798 -1.83911 0.57862 0
M  V30 40 H -2.22713 -2.44668 1.02642 0
M  V30 41 H -3.65597 -0.214379 2.12987 0
M  V30 42 H -3.65915 -1.83424 -1.9788 0
M  V30 43 H -3.93411 -3.25202 -1.01232 0
M  V30 44 H 2.5363 0.896857 -1.66315 0
M  V30 45 H 2.34563 2.4843 -0.882836 0
M  V30 46 H 4.553 2.27566 0.280682 0
M  V30 47 H 4.70282 2.18984 -1.4815 0
M  V30 48 H 5.14334 -0.0517862 -2.69521 0
M  V30 49 H 6.86884 -1.78539 2.55627 0
M  V30 50 H 5.98906 -3.17999 1.83927 0
M  V30 END ATOM
M  V30 BEGIN BOND
M  V30 1 2 1 2
M  V30 2 1 2 3
M  V30 3 1 3 4
M  V30 4 1 4 5
M  V30 5 1 5 6
M  V30 6 1 6 7
M  V30 7 1 7 8
M  V30 8 1 6 9
M  V30 9 2 9 10
M  V30 10 1 10 11
M  V30 11 2 11 12
M  V30 12 1 12 13
M  V30 13 2 13 14
M  V30 14 1 14 15
M  V30 15 1 15 16
M  V30 16 1 16 17
M  V30 17 1 15 18
M  V30 18 1 2 19
M  V30 19 1 19 20
M  V30 20 1 20 21
M  V30 21 2 21 22
M  V30 22 1 22 23
M  V30 23 1 23 24
M  V30 24 2 24 25
M  V30 25 1 24 26
M  V30 26 1 8 3
M  V30 27 1 14 9
M  V30 28 1 25 21
M  V30 29 1 16 6
M  V30 30 1 4 27
M  V30 31 1 4 28
M  V30 32 1 5 29
M  V30 33 1 5 30
M  V30 34 1 7 31
M  V30 35 1 7 32
M  V30 36 1 8 33
M  V30 37 1 8 34
M  V30 38 1 10 35
M  V30 39 1 11 36
M  V30 40 1 12 37
M  V30 41 1 13 38
M  V30 42 1 15 39 CFG=1
M  V30 43 1 16 40 CFG=1
M  V30 44 1 17 41
M  V30 45 1 18 42
M  V30 46 1 18 43
M  V30 47 1 19 44
M  V30 48 1 19 45
M  V30 49 1 20 46
M  V30 50 1 20 47
M  V30 51 1 22 48
M  V30 52 1 26 49
M  V30 53 1 26 50
M  V30 END BOND
M  V30 END CTAB
M  END
