
     RDKit          3D

  0  0  0  0  0  0  0  0  0  0999 V3000
M  V30 BEGIN CTAB
M  V30 COUNTS 23 23 0 0 0
M  V30 BEGIN ATOM
M  V30 1 C -1.71873 2.88024 -0.295738 0
M  V30 2 O -1.66661 1.47282 -0.199081 0
M  V30 3 C -0.438126 0.804073 -0.0923307 0
M  V30 4 C -0.406229 -0.57096 0.00121134 0
M  V30 5 C -1.68646 -1.29431 -0.015092 0
M  V30 6 N -1.54859 -2.714 0.0867782 0
M  V30 7 C 0.802486 -1.22816 0.106185 0
M  V30 8 C 2.01756 -0.558458 0.122764 0
M  V30 9 N 3.25091 -1.24552 0.230994 0
M  V30 10 C 1.95386 0.818145 0.0275081 0
M  V30 11 C 0.756776 1.49644 -0.078289 0
M  V30 12 H -2.76276 3.22519 -0.185503 0
M  V30 13 H -1.06238 3.37292 0.460819 0
M  V30 14 H -1.36305 3.18063 -1.29116 0
M  V30 15 H -2.31732 -0.904831 0.816981 0
M  V30 16 H -2.21666 -1.06538 -0.952439 0
M  V30 17 H -2.31296 -3.2566 -0.324989 0
M  V30 18 H -1.17297 -3.05432 0.975379 0
M  V30 19 H 0.85651 -2.31169 0.181363 0
M  V30 20 H 4.07222 -0.824658 0.711641 0
M  V30 21 H 3.35795 -2.18912 -0.170778 0
M  V30 22 H 2.88674 1.37669 0.0372614 0
M  V30 23 H 0.717833 2.59087 -0.153484 0
M  V30 END ATOM
M  V30 BEGIN BOND
M  V30 1 1 1 2
M  V30 2 1 2 3
M  V30 3 2 3 4
M  V30 4 1 4 5
M  V30 5 1 5 6
M  V30 6 1 4 7
M  V30 7 2 7 8
M  V30 8 1 8 9
M  V30 9 1 8 10
M  V30 10 2 10 11
M  V30 11 1 11 3
M  V30 12 1 1 12
M  V30 13 1 1 13
M  V30 14 1 1 14
M  V30 15 1 5 15
M  V30 16 1 5 16
M  V30 17 1 6 17
M  V30 18 1 6 18
M  V30 19 1 7 19
M  V30 20 1 9 20
M  V30 21 1 9 21
M  V30 22 1 10 22
M  V30 23 1 11 23
M  V30 END BOND
M  V30 END CTAB
M  END
