
     RDKit          3D

  0  0  0  0  0  0  0  0  0  0999 V3000
M  V30 BEGIN CTAB
M  V30 COUNTS 26 27 0 0 0
M  V30 BEGIN ATOM
M  V30 1 N -1.05465 -2.75905 0.220789 0
M  V30 2 C -1.23243 -1.5077 -0.515763 0
M  V30 3 C -0.620577 -0.348531 0.136246 0
M  V30 4 C 0.811461 -0.123478 0.0704522 0
M  V30 5 C 1.73882 -0.378383 1.04448 0
M  V30 6 N 2.93981 -0.00582019 0.831562 0
M  V30 7 C 3.27087 0.595769 -0.26345 0
M  V30 8 S 1.77608 0.661546 -1.11231 0
M  V30 9 N 4.58025 1.1003 -0.665468 0
M  V30 10 C -1.28133 0.879691 -0.580741 0
M  V30 11 C -2.76055 0.944473 -0.307405 0
M  V30 12 C -1.8007 2.00353 0.181548 0
M  V30 13 O -1.10487 -0.223789 1.44166 0
M  V30 14 H -0.130387 -3.14062 0.292471 0
M  V30 15 H -1.66253 -2.76287 1.07255 0
M  V30 16 H -2.35448 -1.39209 -0.699162 0
M  V30 17 H -0.810199 -1.71718 -1.56399 0
M  V30 18 H 1.42668 -0.854144 2.0148 0
M  V30 19 H 5.0326 0.615867 -1.45821 0
M  V30 20 H 4.96577 1.91194 -0.218871 0
M  V30 21 H -0.900788 0.995591 -1.60618 0
M  V30 22 H -3.37125 1.082 -1.17118 0
M  V30 23 H -3.16306 0.262696 0.507539 0
M  V30 24 H -1.65382 2.15437 1.26769 0
M  V30 25 H -1.94018 2.97285 -0.342804 0
M  V30 26 H -0.700525 -0.966981 1.93939 0
M  V30 END ATOM
M  V30 BEGIN BOND
M  V30 1 1 1 2
M  V30 2 1 2 3
M  V30 3 1 3 4
M  V30 4 2 4 5
M  V30 5 1 5 6
M  V30 6 2 6 7
M  V30 7 1 7 8
M  V30 8 1 7 9
M  V30 9 1 3 10
M  V30 10 1 10 11
M  V30 11 1 11 12
M  V30 12 1 3 13
M  V30 13 1 8 4
M  V30 14 1 12 10
M  V30 15 1 1 14
M  V30 16 1 1 15
M  V30 17 1 2 16
M  V30 18 1 2 17
M  V30 19 1 5 18
M  V30 20 1 9 19
M  V30 21 1 9 20
M  V30 22 1 10 21
M  V30 23 1 11 22
M  V30 24 1 11 23
M  V30 25 1 12 24
M  V30 26 1 12 25
M  V30 27 1 13 26
M  V30 END BOND
M  V30 END CTAB
M  END
