
     RDKit          3D

  0  0  0  0  0  0  0  0  0  0999 V3000
M  V30 BEGIN CTAB
M  V30 COUNTS 57 61 0 0 0
M  V30 BEGIN ATOM
M  V30 1 N 8.69178 1.61988 -0.986138 0
M  V30 2 C 7.39337 1.05502 -0.846777 0
M  V30 3 N 6.52511 1.56993 0.03692 0
M  V30 4 C 5.2885 1.02893 0.167101 0
M  V30 5 O 4.23075 1.35655 0.978508 0
M  V30 6 C 3.0377 0.68364 0.607504 0
M  V30 7 C 3.52176 -0.427261 -0.253086 0
M  V30 8 C 4.91257 -0.0516343 -0.60459 0
M  V30 9 C 5.81796 -0.567131 -1.50703 0
M  V30 10 N 7.02653 0.0112136 -1.59032 0
M  V30 11 N 5.5341 -1.67229 -2.34544 0
M  V30 12 C 2.4225 0.172181 1.85957 0
M  V30 13 C 1.17795 -0.595444 1.77725 0
M  V30 14 C 0.674122 -1.01801 0.446427 0
M  V30 15 N 0.487009 0.0222159 -0.472332 0
M  V30 16 C 0.712403 1.3157 0.029866 0
M  V30 17 C 2.19035 1.70131 -0.112106 0
M  V30 18 C -0.521666 -0.0367738 -1.43834 0
M  V30 19 C -1.91816 -0.11417 -0.986698 0
M  V30 20 C -2.87283 -0.475052 -1.94391 0
M  V30 21 C -4.21401 -0.574663 -1.6446 0
M  V30 22 C -4.6814 -0.320124 -0.372965 0
M  V30 23 C -3.74787 0.0362146 0.576655 0
M  V30 24 C -2.39249 0.135357 0.267827 0
M  V30 25 C -6.0968 -0.419621 -0.0336659 0
M  V30 26 C -6.95768 -1.30377 -0.627884 0
M  V30 27 C -8.28991 -1.36316 -0.274821 0
M  V30 28 C -8.78674 -0.517224 0.700899 0
M  V30 29 C -7.94501 0.377344 1.31114 0
M  V30 30 C -6.6334 0.419716 0.947889 0
M  V30 31 H 9.33866 1.25378 -1.69913 0
M  V30 32 H 9.02118 2.39873 -0.389835 0
M  V30 33 H 3.58605 -1.38862 0.318558 0
M  V30 34 H 2.9021 -0.621692 -1.15168 0
M  V30 35 H 5.96956 -1.70434 -3.30254 0
M  V30 36 H 4.91229 -2.46907 -2.07271 0
M  V30 37 H 2.36195 1.05345 2.56764 0
M  V30 38 H 3.20996 -0.47693 2.3504 0
M  V30 39 H 0.35095 -0.0300492 2.30113 0
M  V30 40 H 1.23382 -1.54519 2.40195 0
M  V30 41 H -0.33621 -1.49862 0.647009 0
M  V30 42 H 1.25767 -1.89004 0.0384053 0
M  V30 43 H 0.13128 2.03458 -0.623842 0
M  V30 44 H 0.391411 1.54082 1.04502 0
M  V30 45 H 2.27962 2.72029 0.318324 0
M  V30 46 H 2.4881 1.79025 -1.1758 0
M  V30 47 H -0.409169 0.896183 -2.08332 0
M  V30 48 H -0.393071 -0.857903 -2.19093 0
M  V30 49 H -2.53058 -0.682662 -2.96084 0
M  V30 50 H -4.95354 -0.858841 -2.40491 0
M  V30 51 H -4.10131 0.241186 1.58843 0
M  V30 52 H -1.69432 0.419521 1.03995 0
M  V30 53 H -6.5735 -1.97363 -1.39769 0
M  V30 54 H -8.98146 -2.06497 -0.744025 0
M  V30 55 H -9.8237 -0.519881 1.01814 0
M  V30 56 H -8.27718 1.06371 2.08105 0
M  V30 57 H -5.94705 1.12108 1.41817 0
M  V30 END ATOM
M  V30 BEGIN BOND
M  V30 1 1 1 2
M  V30 2 2 2 3
M  V30 3 1 3 4
M  V30 4 1 4 5
M  V30 5 1 5 6
M  V30 6 1 6 7
M  V30 7 1 7 8
M  V30 8 1 8 9
M  V30 9 2 9 10
M  V30 10 1 9 11
M  V30 11 1 6 12
M  V30 12 1 12 13
M  V30 13 1 13 14
M  V30 14 1 14 15
M  V30 15 1 15 16
M  V30 16 1 16 17
M  V30 17 1 15 18
M  V30 18 1 18 19
M  V30 19 2 19 20
M  V30 20 1 20 21
M  V30 21 2 21 22
M  V30 22 1 22 23
M  V30 23 2 23 24
M  V30 24 1 22 25
M  V30 25 2 25 26
M  V30 26 1 26 27
M  V30 27 2 27 28
M  V30 28 1 28 29
M  V30 29 2 29 30
M  V30 30 1 10 2
M  V30 31 1 24 19
M  V30 32 1 30 25
M  V30 33 2 8 4
M  V30 34 1 17 6
M  V30 35 1 1 31
M  V30 36 1 1 32
M  V30 37 1 7 33
M  V30 38 1 7 34
M  V30 39 1 11 35
M  V30 40 1 11 36
M  V30 41 1 12 37
M  V30 42 1 12 38
M  V30 43 1 13 39
M  V30 44 1 13 40
M  V30 45 1 14 41
M  V30 46 1 14 42
M  V30 47 1 16 43
M  V30 48 1 16 44
M  V30 49 1 17 45
M  V30 50 1 17 46
M  V30 51 1 18 47
M  V30 52 1 18 48
M  V30 53 1 20 49
M  V30 54 1 21 50
M  V30 55 1 23 51
M  V30 56 1 24 52
M  V30 57 1 26 53
M  V30 58 1 27 54
M  V30 59 1 28 55
M  V30 60 1 29 56
M  V30 61 1 30 57
M  V30 END BOND
M  V30 END CTAB
M  END
