
     RDKit          3D

  0  0  0  0  0  0  0  0  0  0999 V3000
M  V30 BEGIN CTAB
M  V30 COUNTS 51 54 0 0 0
M  V30 BEGIN ATOM
M  V30 1 N -7.0276 2.146 2.28307 0
M  V30 2 C -7.03871 1.08722 1.38166 0 CFG=2
M  V30 3 C -6.17525 -0.119468 1.77276 0
M  V30 4 C -5.81729 -0.230903 0.29667 0 CFG=1
M  V30 5 C -6.06734 1.2804 0.209652 0
M  V30 6 C -4.41769 -0.572891 0.0165145 0
M  V30 7 C -3.38841 0.0701256 0.642516 0
M  V30 8 C -2.07675 -0.272198 0.359238 0
M  V30 9 N -1.04429 0.404404 1.02909 0
M  V30 10 C 0.322904 0.110457 0.769029 0
M  V30 11 C 0.793445 0.429297 -0.62932 0
M  V30 12 C 2.24048 0.0462649 -0.67021 0
M  V30 13 N 3.23471 0.890117 -0.356768 0
M  V30 14 C 4.41579 0.227184 -0.498252 0
M  V30 15 C 4.13383 -1.06027 -0.910563 0
M  V30 16 N 2.7771 -1.13764 -1.00686 0
M  V30 17 C 5.17079 -1.94413 -1.12789 0
M  V30 18 C 6.48052 -1.53106 -0.930444 0
M  V30 19 C 6.73969 -0.241668 -0.51873 0
M  V30 20 C 5.71356 0.637985 -0.302154 0
M  V30 21 C 6.04202 2.03204 0.145295 0
M  V30 22 C 8.15089 0.235616 -0.295884 0
M  V30 23 N -1.85039 -1.23789 -0.533237 0
M  V30 24 C -2.84777 -1.87522 -1.15311 0
M  V30 25 N -4.13118 -1.52385 -0.860661 0
M  V30 26 N -2.56511 -2.90285 -2.10166 0
M  V30 27 H -6.32153 2.17421 2.94645 0
M  V30 28 H -7.83444 2.70997 2.27873 0
M  V30 29 H -8.063 0.798753 1.03344 0
M  V30 30 H -6.74687 -0.953142 2.18717 0
M  V30 31 H -5.35372 0.208753 2.41955 0
M  V30 32 H -6.56554 -0.827617 -0.25919 0
M  V30 33 H -5.18376 1.83419 0.523595 0
M  V30 34 H -6.54742 1.55969 -0.72751 0
M  V30 35 H -3.60889 0.854535 1.3668 0
M  V30 36 H -1.29718 1.14803 1.74174 0
M  V30 37 H 0.502525 -0.975452 0.934132 0
M  V30 38 H 1.00288 0.655727 1.46014 0
M  V30 39 H 0.224645 -0.0660906 -1.41719 0
M  V30 40 H 0.73567 1.54352 -0.800143 0
M  V30 41 H 2.26514 -1.99545 -1.29882 0
M  V30 42 H 4.95292 -2.94127 -1.44714 0
M  V30 43 H 7.26645 -2.22562 -1.10277 0
M  V30 44 H 5.07906 2.54632 0.352965 0
M  V30 45 H 6.6467 2.01775 1.06649 0
M  V30 46 H 6.53758 2.54833 -0.697586 0
M  V30 47 H 8.82319 -0.210319 -1.08543 0
M  V30 48 H 8.19865 1.34149 -0.35378 0
M  V30 49 H 8.45843 -0.157126 0.685738 0
M  V30 50 H -1.9775 -3.72541 -1.84697 0
M  V30 51 H -2.96195 -2.81083 -3.05939 0
M  V30 END ATOM
M  V30 BEGIN BOND
M  V30 1 1 1 2
M  V30 2 1 2 3
M  V30 3 1 3 4
M  V30 4 1 4 5
M  V30 5 1 4 6
M  V30 6 2 6 7
M  V30 7 1 7 8
M  V30 8 1 8 9
M  V30 9 1 9 10
M  V30 10 1 10 11
M  V30 11 1 11 12
M  V30 12 2 12 13
M  V30 13 1 13 14
M  V30 14 2 14 15
M  V30 15 1 15 16
M  V30 16 1 15 17
M  V30 17 2 17 18
M  V30 18 1 18 19
M  V30 19 2 19 20
M  V30 20 1 20 21
M  V30 21 1 19 22
M  V30 22 2 8 23
M  V30 23 1 23 24
M  V30 24 2 24 25
M  V30 25 1 24 26
M  V30 26 1 5 2
M  V30 27 1 25 6
M  V30 28 1 16 12
M  V30 29 1 20 14
M  V30 30 1 1 27
M  V30 31 1 1 28
M  V30 32 1 2 29 CFG=3
M  V30 33 1 3 30
M  V30 34 1 3 31
M  V30 35 1 4 32 CFG=3
M  V30 36 1 5 33
M  V30 37 1 5 34
M  V30 38 1 7 35
M  V30 39 1 9 36
M  V30 40 1 10 37
M  V30 41 1 10 38
M  V30 42 1 11 39
M  V30 43 1 11 40
M  V30 44 1 16 41
M  V30 45 1 17 42
M  V30 46 1 18 43
M  V30 47 1 21 44
M  V30 48 1 21 45
M  V30 49 1 21 46
M  V30 50 1 22 47
M  V30 51 1 22 48
M  V30 52 1 22 49
M  V30 53 1 26 50
M  V30 54 1 26 51
M  V30 END BOND
M  V30 END CTAB
M  END
