
     RDKit          3D

  0  0  0  0  0  0  0  0  0  0999 V3000
M  V30 BEGIN CTAB
M  V30 COUNTS 50 54 0 0 0
M  V30 BEGIN ATOM
M  V30 1 N -0.00497729 -3.81388 2.65627 0
M  V30 2 C -0.239427 -2.73531 1.78148 0
M  V30 3 N -1.46866 -2.33937 1.41191 0
M  V30 4 C -1.68498 -1.31019 0.577434 0
M  V30 5 N -0.621554 -0.645404 0.0893422 0
M  V30 6 C 0.619768 -1.0045 0.429856 0
M  V30 7 N 0.800758 -2.02402 1.25511 0
M  V30 8 C 1.74624 -0.238168 -0.137144 0
M  V30 9 S 1.7232 1.08823 -1.20198 0
M  V30 10 C 3.40226 1.36052 -1.34951 0
M  V30 11 C 3.94257 0.390955 -0.549027 0
M  V30 12 C 3.08793 -0.437341 0.0792351 0
M  V30 13 N 3.47911 -1.52546 0.96783 0
M  V30 14 C 5.34421 0.391126 -0.490311 0
M  V30 15 C 6.0902 -0.598123 0.335403 0
M  V30 16 C 6.08233 1.30635 -1.19358 0
M  V30 17 C 5.49678 2.26125 -1.98424 0
M  V30 18 N 4.16542 2.2692 -2.04648 0
M  V30 19 C 6.34557 3.2173 -2.71566 0
M  V30 20 N -3.01963 -0.97162 0.249225 0
M  V30 21 C -4.12698 -1.72483 0.80414 0
M  V30 22 C -4.86161 -0.7345 1.71826 0
M  V30 23 C -5.36879 0.330918 0.786986 0
M  V30 24 C -4.64289 0.720955 -0.313105 0
M  V30 25 C -3.33651 0.125286 -0.64181 0
M  V30 26 C -5.1633 1.71676 -1.14645 0
M  V30 27 C -6.37557 2.32938 -0.916654 0
M  V30 28 C -7.09258 1.9178 0.203457 0
M  V30 29 C -6.58269 0.937952 1.02525 0
M  V30 30 H -0.041615 -3.74433 3.70027 0
M  V30 31 H 0.218804 -4.73833 2.23594 0
M  V30 32 H 3.69449 -2.47735 0.619355 0
M  V30 33 H 3.53362 -1.3034 1.97891 0
M  V30 34 H 5.87567 -1.64229 0.0661449 0
M  V30 35 H 5.7657 -0.449281 1.38589 0
M  V30 36 H 7.17979 -0.375488 0.343486 0
M  V30 37 H 7.19515 1.26815 -1.1163 0
M  V30 38 H 6.7408 3.99206 -2.01147 0
M  V30 39 H 5.77852 3.74524 -3.51258 0
M  V30 40 H 7.22651 2.73814 -3.19175 0
M  V30 41 H -4.80463 -1.98029 -0.0315999 0
M  V30 42 H -3.79423 -2.60029 1.38842 0
M  V30 43 H -4.14311 -0.242267 2.39542 0
M  V30 44 H -5.68011 -1.21569 2.25647 0
M  V30 45 H -2.57369 0.941587 -0.574141 0
M  V30 46 H -3.32943 -0.285326 -1.67696 0
M  V30 47 H -4.62032 2.05434 -2.0278 0
M  V30 48 H -6.78148 3.09599 -1.55383 0
M  V30 49 H -8.0559 2.3606 0.442115 0
M  V30 50 H -7.12072 0.596953 1.90655 0
M  V30 END ATOM
M  V30 BEGIN BOND
M  V30 1 1 1 2
M  V30 2 2 2 3
M  V30 3 1 3 4
M  V30 4 2 4 5
M  V30 5 1 5 6
M  V30 6 2 6 7
M  V30 7 1 6 8
M  V30 8 1 8 9
M  V30 9 1 9 10
M  V30 10 2 10 11
M  V30 11 1 11 12
M  V30 12 1 12 13
M  V30 13 1 11 14
M  V30 14 1 14 15
M  V30 15 2 14 16
M  V30 16 1 16 17
M  V30 17 2 17 18
M  V30 18 1 17 19
M  V30 19 1 4 20
M  V30 20 1 20 21
M  V30 21 1 21 22
M  V30 22 1 22 23
M  V30 23 2 23 24
M  V30 24 1 24 25
M  V30 25 1 24 26
M  V30 26 2 26 27
M  V30 27 1 27 28
M  V30 28 2 28 29
M  V30 29 1 7 2
M  V30 30 2 12 8
M  V30 31 1 25 20
M  V30 32 1 18 10
M  V30 33 1 29 23
M  V30 34 1 1 30
M  V30 35 1 1 31
M  V30 36 1 13 32
M  V30 37 1 13 33
M  V30 38 1 15 34
M  V30 39 1 15 35
M  V30 40 1 15 36
M  V30 41 1 16 37
M  V30 42 1 19 38
M  V30 43 1 19 39
M  V30 44 1 19 40
M  V30 45 1 21 41
M  V30 46 1 21 42
M  V30 47 1 22 43
M  V30 48 1 22 44
M  V30 49 1 25 45
M  V30 50 1 25 46
M  V30 51 1 26 47
M  V30 52 1 27 48
M  V30 53 1 28 49
M  V30 54 1 29 50
M  V30 END BOND
M  V30 END CTAB
M  END
