
     RDKit          3D

  0  0  0  0  0  0  0  0  0  0999 V3000
M  V30 BEGIN CTAB
M  V30 COUNTS 38 40 0 0 0
M  V30 BEGIN ATOM
M  V30 1 N 7.45168 -0.343902 0.833056 0
M  V30 2 C 6.61204 0.122991 -0.212244 0
M  V30 3 N 7.16236 0.588097 -1.26615 0
M  V30 4 C 5.16341 0.0849273 -0.113284 0
M  V30 5 C 4.2989 0.518624 -1.08377 0
M  V30 6 C 2.90045 0.463024 -0.945571 0
M  V30 7 Cl 1.94109 1.05477 -2.27181 0
M  V30 8 C 2.32828 -0.0348917 0.182924 0
M  V30 9 C 3.21123 -0.481575 1.18254 0
M  V30 10 C 4.56355 -0.419788 1.03079 0
M  V30 11 C 0.909976 -0.156188 0.469622 0
M  V30 12 C -0.160237 0.181195 -0.281637 0
M  V30 13 C -1.33356 -0.131192 0.433905 0
M  V30 14 N -0.884898 -0.639443 1.57636 0
M  V30 15 O 0.402163 -0.652468 1.59388 0
M  V30 16 C -2.68024 0.0893094 -0.0509999 0
M  V30 17 C -3.77615 -0.248624 0.722074 0
M  V30 18 C -5.07382 -0.0394214 0.262153 0
M  V30 19 C -5.28097 0.509884 -0.975686 0
M  V30 20 C -4.19002 0.86098 -1.77842 0
M  V30 21 C -2.94015 0.640704 -1.29305 0
M  V30 22 C -6.20157 -0.418321 1.12819 0
M  V30 23 N -5.96712 -0.988081 2.4127 0
M  V30 24 N -7.42759 -0.263348 0.789659 0
M  V30 25 H 7.89976 -1.30448 0.817954 0
M  V30 26 H 7.68496 0.224174 1.68542 0
M  V30 27 H 6.69862 0.964625 -2.11108 0
M  V30 28 H 4.69815 0.920229 -1.99342 0
M  V30 29 H 2.82825 -0.899399 2.1286 0
M  V30 30 H 5.24498 -0.77003 1.81468 0
M  V30 31 H -0.196626 0.616631 -1.26361 0
M  V30 32 H -3.62314 -0.687552 1.71129 0
M  V30 33 H -6.28199 0.676215 -1.34164 0
M  V30 34 H -4.38652 1.29039 -2.74575 0
M  V30 35 H -2.09057 0.912155 -1.91374 0
M  V30 36 H -5.65169 -0.379757 3.17693 0
M  V30 37 H -6.11173 -1.99594 2.57348 0
M  V30 38 H -7.74124 0.135471 -0.107938 0
M  V30 END ATOM
M  V30 BEGIN BOND
M  V30 1 1 1 2
M  V30 2 2 2 3 CFG=2
M  V30 3 1 2 4
M  V30 4 2 4 5
M  V30 5 1 5 6
M  V30 6 1 6 7
M  V30 7 2 6 8
M  V30 8 1 8 9
M  V30 9 2 9 10
M  V30 10 1 8 11
M  V30 11 2 11 12
M  V30 12 1 12 13
M  V30 13 2 13 14
M  V30 14 1 14 15
M  V30 15 1 13 16
M  V30 16 2 16 17
M  V30 17 1 17 18
M  V30 18 2 18 19
M  V30 19 1 19 20
M  V30 20 2 20 21
M  V30 21 1 18 22
M  V30 22 1 22 23
M  V30 23 2 22 24 CFG=2
M  V30 24 1 10 4
M  V30 25 1 15 11
M  V30 26 1 21 16
M  V30 27 1 1 25
M  V30 28 1 1 26
M  V30 29 1 3 27
M  V30 30 1 5 28
M  V30 31 1 9 29
M  V30 32 1 10 30
M  V30 33 1 12 31
M  V30 34 1 17 32
M  V30 35 1 19 33
M  V30 36 1 20 34
M  V30 37 1 21 35
M  V30 38 1 23 36
M  V30 39 1 23 37
M  V30 40 1 24 38
M  V30 END BOND
M  V30 END CTAB
M  END
