
     RDKit          3D

  0  0  0  0  0  0  0  0  0  0999 V3000
M  V30 BEGIN CTAB
M  V30 COUNTS 40 39 0 0 0
M  V30 BEGIN ATOM
M  V30 1 N -1.43827 -0.872264 1.61186 0
M  V30 2 C -2.62119 -1.09056 0.807646 0
M  V30 3 C -3.16026 0.198649 0.345246 0
M  V30 4 O -2.56335 1.25876 0.657648 0
M  V30 5 N -4.34172 0.296498 -0.448424 0
M  V30 6 C -4.8962 1.53824 -0.9145 0
M  V30 7 C -5.29996 2.4699 0.136224 0
M  V30 8 O -5.18233 2.16999 1.34381 0
M  V30 9 O -5.82181 3.70659 -0.197686 0
M  V30 10 C -2.21157 -1.93529 -0.381 0
M  V30 11 S -0.934029 -1.03279 -1.32651 0
M  V30 12 S 0.855245 -0.84005 -0.20653 0
M  V30 13 C 1.97945 -2.20374 -0.458886 0
M  V30 14 C 3.22705 -2.03389 0.363725 0
M  V30 15 C 3.91767 -0.809491 -0.0134634 0
M  V30 16 O 4.96214 -0.8956 -0.746817 0
M  V30 17 N 3.49294 0.455117 0.391704 0
M  V30 18 C 4.25232 1.64129 -0.0411515 0
M  V30 19 C 3.63725 2.86947 0.495579 0
M  V30 20 O 2.61275 2.8368 1.20846 0
M  V30 21 O 4.19921 4.09804 0.209507 0
M  V30 22 N 4.13779 -3.17316 0.0765509 0
M  V30 23 H -1.73231 -0.583793 2.56657 0
M  V30 24 H -0.902899 -1.76611 1.72548 0
M  V30 25 H -3.38993 -1.67123 1.36892 0
M  V30 26 H -4.81972 -0.592692 -0.694895 0
M  V30 27 H -4.16035 2.03968 -1.59283 0
M  V30 28 H -5.74936 1.28146 -1.60976 0
M  V30 29 H -5.74483 4.48216 0.473123 0
M  V30 30 H -3.0323 -2.17079 -1.07107 0
M  V30 31 H -1.72437 -2.85321 0.0144235 0
M  V30 32 H 1.4703 -3.1293 -0.0600725 0
M  V30 33 H 2.20245 -2.31569 -1.54243 0
M  V30 34 H 2.99855 -2.12349 1.43892 0
M  V30 35 H 2.67046 0.63553 0.997854 0
M  V30 36 H 5.30141 1.48804 0.293267 0
M  V30 37 H 4.21609 1.71304 -1.16081 0
M  V30 38 H 5.21543 4.17674 0.353775 0
M  V30 39 H 4.80831 -3.21406 0.869704 0
M  V30 40 H 3.56993 -4.0488 0.00524698 0
M  V30 END ATOM
M  V30 BEGIN BOND
M  V30 1 1 1 2
M  V30 2 1 2 3
M  V30 3 2 3 4
M  V30 4 1 3 5
M  V30 5 1 5 6
M  V30 6 1 6 7
M  V30 7 2 7 8
M  V30 8 1 7 9
M  V30 9 1 2 10
M  V30 10 1 10 11
M  V30 11 1 11 12
M  V30 12 1 12 13
M  V30 13 1 13 14
M  V30 14 1 14 15
M  V30 15 2 15 16
M  V30 16 1 15 17
M  V30 17 1 17 18
M  V30 18 1 18 19
M  V30 19 2 19 20
M  V30 20 1 19 21
M  V30 21 1 14 22
M  V30 22 1 1 23
M  V30 23 1 1 24
M  V30 24 1 2 25
M  V30 25 1 5 26
M  V30 26 1 6 27
M  V30 27 1 6 28
M  V30 28 1 9 29
M  V30 29 1 10 30
M  V30 30 1 10 31
M  V30 31 1 13 32
M  V30 32 1 13 33
M  V30 33 1 14 34
M  V30 34 1 17 35
M  V30 35 1 18 36
M  V30 36 1 18 37
M  V30 37 1 21 38
M  V30 38 1 22 39
M  V30 39 1 22 40
M  V30 END BOND
M  V30 END CTAB
M  END
