
     RDKit          3D

  0  0  0  0  0  0  0  0  0  0999 V3000
M  V30 BEGIN CTAB
M  V30 COUNTS 28 29 0 0 0
M  V30 BEGIN ATOM
M  V30 1 N -4.41485 1.08891 -0.0619761 0
M  V30 2 O -3.90832 0.829547 -1.29318 0
M  V30 3 C -3.34526 -0.429121 -1.35708 0
M  V30 4 C -2.22459 -0.560557 -0.364051 0
M  V30 5 N -0.968676 -0.238091 -0.730769 0
M  V30 6 C 0.088709 -0.326435 0.0938501 0
M  V30 7 C -0.146771 -0.772143 1.37601 0
M  V30 8 C -1.42983 -1.11121 1.78099 0
M  V30 9 C -2.49772 -1.01069 0.912616 0
M  V30 10 C 1.44607 0.0427076 -0.367442 0
M  V30 11 N 2.50283 -0.0411854 0.442827 0
M  V30 12 C 3.75601 0.289345 0.0493525 0
M  V30 13 N 4.84539 0.178668 0.960795 0
M  V30 14 C 3.95244 0.73181 -1.2427 0
M  V30 15 C 2.87387 0.823336 -2.08828 0
M  V30 16 C 1.61499 0.478899 -1.65395 0
M  V30 17 H -5.10393 0.366348 0.238098 0
M  V30 18 H -4.84523 2.03722 -0.0949358 0
M  V30 19 H -2.88299 -0.546288 -2.3585 0
M  V30 20 H -4.08457 -1.24222 -1.2382 0
M  V30 21 H 0.687851 -0.849434 2.0507 0
M  V30 22 H -1.62274 -1.46735 2.80304 0
M  V30 23 H -3.51241 -1.26563 1.19129 0
M  V30 24 H 4.63779 0.0646663 1.97351 0
M  V30 25 H 5.81267 0.209153 0.639424 0
M  V30 26 H 4.95354 0.990708 -1.54083 0
M  V30 27 H 3.03675 1.17331 -3.10635 0
M  V30 28 H 0.778966 0.555728 -2.32791 0
M  V30 END ATOM
M  V30 BEGIN BOND
M  V30 1 1 1 2
M  V30 2 1 2 3
M  V30 3 1 3 4
M  V30 4 2 4 5
M  V30 5 1 5 6
M  V30 6 2 6 7
M  V30 7 1 7 8
M  V30 8 2 8 9
M  V30 9 1 6 10
M  V30 10 2 10 11
M  V30 11 1 11 12
M  V30 12 1 12 13
M  V30 13 2 12 14
M  V30 14 1 14 15
M  V30 15 2 15 16
M  V30 16 1 9 4
M  V30 17 1 16 10
M  V30 18 1 1 17
M  V30 19 1 1 18
M  V30 20 1 3 19
M  V30 21 1 3 20
M  V30 22 1 7 21
M  V30 23 1 8 22
M  V30 24 1 9 23
M  V30 25 1 13 24
M  V30 26 1 13 25
M  V30 27 1 14 26
M  V30 28 1 15 27
M  V30 29 1 16 28
M  V30 END BOND
M  V30 END CTAB
M  END
