
     RDKit          3D

  0  0  0  0  0  0  0  0  0  0999 V3000
M  V30 BEGIN CTAB
M  V30 COUNTS 36 40 0 0 0
M  V30 BEGIN ATOM
M  V30 1 N 5.05402 2.02925 -0.34898 0
M  V30 2 C 3.95088 1.17113 -0.187528 0
M  V30 3 C 4.10889 -0.181026 0.0438204 0
M  V30 4 N 5.42436 -0.710182 0.119115 0
M  V30 5 C 3.00612 -0.977913 0.194712 0
M  V30 6 C 1.6996 -0.483088 0.125239 0
M  V30 7 N 0.650721 -1.30372 0.279572 0
M  V30 8 C -0.605808 -0.806833 0.209139 0
M  V30 9 C -0.78816 0.539098 -0.0208338 0
M  V30 10 N 0.30085 1.3519 -0.174307 0
M  V30 11 C 1.55309 0.8679 -0.106047 0
M  V30 12 C 2.66946 1.67986 -0.259704 0
M  V30 13 C -2.0541 1.11058 -0.104017 0
M  V30 14 C -3.16481 0.30929 0.047732 0
M  V30 15 N -4.41695 0.833065 -0.0273856 0
M  V30 16 C -4.58407 2.14525 -0.251717 0
M  V30 17 C -3.47906 2.98821 -0.410586 0
M  V30 18 C -2.20942 2.45573 -0.334178 0
M  V30 19 C -2.96284 -1.03767 0.277644 0
M  V30 20 C -1.7153 -1.59729 0.359004 0
M  V30 21 C -1.57596 -2.94245 0.589366 0
M  V30 22 C -2.69664 -3.73663 0.740013 0
M  V30 23 C -3.93884 -3.14298 0.652715 0
M  V30 24 N -4.04666 -1.81219 0.424448 0
M  V30 25 H 4.97808 2.98538 -0.702449 0
M  V30 26 H 6.03136 1.69995 -0.100712 0
M  V30 27 H 5.96927 -0.808516 0.999029 0
M  V30 28 H 5.86291 -1.0177 -0.776448 0
M  V30 29 H 3.12605 -2.02782 0.374382 0
M  V30 30 H 2.50829 2.74039 -0.440707 0
M  V30 31 H -5.59603 2.54663 -0.30865 0
M  V30 32 H -3.69284 4.01999 -0.585975 0
M  V30 33 H -1.35538 3.09545 -0.454924 0
M  V30 34 H -0.590469 -3.3893 0.654456 0
M  V30 35 H -2.61234 -4.80691 0.923624 0
M  V30 36 H -4.80829 -3.78684 0.774374 0
M  V30 END ATOM
M  V30 BEGIN BOND
M  V30 1 1 1 2
M  V30 2 2 2 3
M  V30 3 1 3 4
M  V30 4 1 3 5
M  V30 5 2 5 6
M  V30 6 1 6 7
M  V30 7 2 7 8
M  V30 8 1 8 9
M  V30 9 2 9 10
M  V30 10 1 10 11
M  V30 11 2 11 12
M  V30 12 1 9 13
M  V30 13 2 13 14
M  V30 14 1 14 15
M  V30 15 2 15 16
M  V30 16 1 16 17
M  V30 17 2 17 18
M  V30 18 1 14 19
M  V30 19 2 19 20
M  V30 20 1 20 21
M  V30 21 2 21 22
M  V30 22 1 22 23
M  V30 23 2 23 24
M  V30 24 1 12 2
M  V30 25 1 18 13
M  V30 26 1 24 19
M  V30 27 1 11 6
M  V30 28 1 20 8
M  V30 29 1 1 25
M  V30 30 1 1 26
M  V30 31 1 4 27
M  V30 32 1 4 28
M  V30 33 1 5 29
M  V30 34 1 12 30
M  V30 35 1 16 31
M  V30 36 1 17 32
M  V30 37 1 18 33
M  V30 38 1 21 34
M  V30 39 1 22 35
M  V30 40 1 23 36
M  V30 END BOND
M  V30 END CTAB
M  END
