
     RDKit          3D

  0  0  0  0  0  0  0  0  0  0999 V3000
M  V30 BEGIN CTAB
M  V30 COUNTS 36 39 0 0 0
M  V30 BEGIN ATOM
M  V30 1 N 5.66929 1.93365 -1.14778 0
M  V30 2 C 4.48592 1.25991 -0.742426 0
M  V30 3 N 4.45422 -0.0686403 -0.687776 0
M  V30 4 C 3.33465 -0.734447 -0.303316 0
M  V30 5 N 3.35469 -2.14995 -0.262839 0
M  V30 6 C 2.2344 0.00329627 0.0280103 0
M  V30 7 C 1.07088 -0.633913 0.425529 0
M  V30 8 C -0.0405816 0.126449 0.759314 0
M  V30 9 C 0.0255946 1.50472 0.692324 0
M  V30 10 C 1.1813 2.11587 0.298152 0
M  V30 11 C 2.29704 1.39629 -0.0388118 0
M  V30 12 N 3.43065 2.02238 -0.426494 0
M  V30 13 N -1.04089 -0.720803 1.11541 0
M  V30 14 C -2.35248 -0.246461 1.50783 0
M  V30 15 C -3.32549 -0.148317 0.430434 0
M  V30 16 C -4.07088 -1.24087 0.0495163 0
M  V30 17 C -4.98127 -1.09874 -0.967111 0
M  V30 18 N -5.16995 0.0691885 -1.60295 0
M  V30 19 C -4.46169 1.14063 -1.25334 0
M  V30 20 C -3.52312 1.03855 -0.221751 0
M  V30 21 C -0.584538 -1.96168 1.01305 0
M  V30 22 C 0.725509 -1.95488 0.586664 0
M  V30 23 H 5.7962 2.28591 -2.11663 0
M  V30 24 H 6.44091 2.0875 -0.468672 0
M  V30 25 H 3.12084 -2.78451 -1.05355 0
M  V30 26 H 3.63036 -2.59539 0.636589 0
M  V30 27 H -0.835963 2.12399 0.956924 0
M  V30 28 H 1.23965 3.21566 0.24268 0
M  V30 29 H -2.76793 -0.920417 2.31482 0
M  V30 30 H -2.22195 0.72957 2.01668 0
M  V30 31 H -3.96414 -2.21685 0.526962 0
M  V30 32 H -5.60189 -1.93171 -1.31291 0
M  V30 33 H -4.60963 2.09301 -1.76557 0
M  V30 34 H -3.00045 1.95965 -0.00792308 0
M  V30 35 H -1.20832 -2.83889 1.24854 0
M  V30 36 H 1.26907 -2.85975 0.443369 0
M  V30 END ATOM
M  V30 BEGIN BOND
M  V30 1 1 1 2
M  V30 2 2 2 3
M  V30 3 1 3 4
M  V30 4 1 4 5
M  V30 5 2 4 6
M  V30 6 1 6 7
M  V30 7 2 7 8
M  V30 8 1 8 9
M  V30 9 2 9 10
M  V30 10 1 10 11
M  V30 11 2 11 12
M  V30 12 1 8 13
M  V30 13 1 13 14
M  V30 14 1 14 15
M  V30 15 2 15 16
M  V30 16 1 16 17
M  V30 17 2 17 18
M  V30 18 1 18 19
M  V30 19 2 19 20
M  V30 20 1 13 21
M  V30 21 2 21 22
M  V30 22 1 12 2
M  V30 23 1 20 15
M  V30 24 1 11 6
M  V30 25 1 22 7
M  V30 26 1 1 23
M  V30 27 1 1 24
M  V30 28 1 5 25
M  V30 29 1 5 26
M  V30 30 1 9 27
M  V30 31 1 10 28
M  V30 32 1 14 29
M  V30 33 1 14 30
M  V30 34 1 16 31
M  V30 35 1 17 32
M  V30 36 1 19 33
M  V30 37 1 20 34
M  V30 38 1 21 35
M  V30 39 1 22 36
M  V30 END BOND
M  V30 END CTAB
M  END
