
     RDKit          3D

  0  0  0  0  0  0  0  0  0  0999 V3000
M  V30 BEGIN CTAB
M  V30 COUNTS 26 27 0 0 0
M  V30 BEGIN ATOM
M  V30 1 C 4.69911 0.462809 -0.209991 0
M  V30 2 C 3.44381 0.123596 0.0148069 0
M  V30 3 C 2.52875 -0.999767 -0.215764 0
M  V30 4 N 1.38646 -0.177902 0.15449 0
M  V30 5 C 2.30326 0.806016 0.665055 0
M  V30 6 C -0.0302161 -0.304731 0.0504178 0
M  V30 7 C -0.63387 -1.40829 -0.509692 0
M  V30 8 C -2.0078 -1.49371 -0.59216 0
M  V30 9 C -2.82471 -0.490121 -0.123044 0
M  V30 10 C -2.20146 0.628126 0.444863 0
M  V30 11 C -0.826222 0.713205 0.527201 0
M  V30 12 F -0.270036 1.83432 1.09454 0
M  V30 13 N -3.01283 1.68338 0.939529 0
M  V30 14 N -4.24197 -0.554692 -0.196541 0
M  V30 15 H 5.39033 -0.205909 -0.718947 0
M  V30 16 H 5.1032 1.41962 0.0992708 0
M  V30 17 H 2.72216 -1.86657 0.428676 0
M  V30 18 H 2.49022 -1.24734 -1.30001 0
M  V30 19 H 2.19245 1.82743 0.245126 0
M  V30 20 H 2.43421 0.78811 1.76324 0
M  V30 21 H -0.00712005 -2.20674 -0.883599 0
M  V30 22 H -2.48298 -2.37613 -1.03981 0
M  V30 23 H -3.77322 1.52507 1.63016 0
M  V30 24 H -2.85306 2.65586 0.608534 0
M  V30 25 H -4.80518 0.318913 -0.179004 0
M  V30 26 H -4.72326 -1.45455 -0.267135 0
M  V30 END ATOM
M  V30 BEGIN BOND
M  V30 1 2 1 2 CFG=2
M  V30 2 1 2 3
M  V30 3 1 3 4
M  V30 4 1 4 5
M  V30 5 1 4 6
M  V30 6 2 6 7
M  V30 7 1 7 8
M  V30 8 2 8 9
M  V30 9 1 9 10
M  V30 10 2 10 11
M  V30 11 1 11 12
M  V30 12 1 10 13
M  V30 13 1 9 14
M  V30 14 1 5 2
M  V30 15 1 11 6
M  V30 16 1 1 15
M  V30 17 1 1 16
M  V30 18 1 3 17
M  V30 19 1 3 18
M  V30 20 1 5 19
M  V30 21 1 5 20
M  V30 22 1 7 21
M  V30 23 1 8 22
M  V30 24 1 13 23
M  V30 25 1 13 24
M  V30 26 1 14 25
M  V30 27 1 14 26
M  V30 END BOND
M  V30 END CTAB
M  END
