
     RDKit          3D

  0  0  0  0  0  0  0  0  0  0999 V3000
M  V30 BEGIN CTAB
M  V30 COUNTS 16 16 0 0 0
M  V30 BEGIN ATOM
M  V30 1 N -2.90726 -0.417893 0.500081 0
M  V30 2 N -1.83361 -0.990686 -0.175873 0
M  V30 3 C -0.577044 -0.320617 -0.207068 0
M  V30 4 C -0.509422 0.929103 -0.816426 0
M  V30 5 C 0.730503 1.52691 -0.828715 0
M  V30 6 Cl 0.81742 3.10975 -1.59703 0
M  V30 7 N 1.80199 0.924902 -0.27998 0
M  V30 8 C 1.7278 -0.28306 0.307149 0
M  V30 9 N 0.524075 -0.882582 0.329254 0
M  V30 10 N 2.87041 -0.917761 0.879829 0
M  V30 11 H -3.08056 0.497669 0.0300228 0
M  V30 12 H -2.80207 -0.362461 1.51909 0
M  V30 13 H -1.96411 -1.89847 -0.647625 0
M  V30 14 H -1.39841 1.36629 -1.23826 0
M  V30 15 H 3.34436 -1.74396 0.462568 0
M  V30 16 H 3.25592 -0.537124 1.76298 0
M  V30 END ATOM
M  V30 BEGIN BOND
M  V30 1 1 1 2
M  V30 2 1 2 3
M  V30 3 2 3 4
M  V30 4 1 4 5
M  V30 5 1 5 6
M  V30 6 2 5 7
M  V30 7 1 7 8
M  V30 8 2 8 9
M  V30 9 1 8 10
M  V30 10 1 9 3
M  V30 11 1 1 11
M  V30 12 1 1 12
M  V30 13 1 2 13
M  V30 14 1 4 14
M  V30 15 1 10 15
M  V30 16 1 10 16
M  V30 END BOND
M  V30 END CTAB
M  END
