
     RDKit          3D

  0  0  0  0  0  0  0  0  0  0999 V3000
M  V30 BEGIN CTAB
M  V30 COUNTS 27 26 0 0 0
M  V30 BEGIN ATOM
M  V30 1 N 3.47433 -1.16959 0.274545 0
M  V30 2 C 2.42203 -0.387905 -0.337727 0 CFG=1
M  V30 3 C 1.15303 -0.865089 0.286592 0
M  V30 4 C -0.101576 -0.189011 -0.203214 0
M  V30 5 C -1.24284 -0.846238 0.551119 0 CFG=1
M  V30 6 F -1.0212 -0.629779 1.89436 0
M  V30 7 C -2.57802 -0.242909 0.203991 0 CFG=2
M  V30 8 N -2.89788 -0.362747 -1.19586 0
M  V30 9 C -2.68215 1.16439 0.601928 0
M  V30 10 O -2.42027 1.53518 1.90903 0
M  V30 11 O -3.00754 2.02917 -0.239763 0
M  V30 12 C 2.73173 1.02204 -0.0815353 0
M  V30 13 O 1.97092 2.01887 -0.652209 0
M  V30 14 O 3.68835 1.33282 0.654617 0
M  V30 15 H 4.10815 -1.57223 -0.361746 0
M  V30 16 H 3.84049 -0.677148 1.0711 0
M  V30 17 H 2.41031 -0.614397 -1.44183 0
M  V30 18 H 1.21975 -0.73905 1.40544 0
M  V30 19 H 1.03087 -1.96868 0.144244 0
M  V30 20 H -0.186756 -0.304627 -1.29904 0
M  V30 21 H -0.0198445 0.893537 0.09247 0
M  V30 22 H -1.22456 -1.91083 0.333568 0
M  V30 23 H -3.33965 -0.883241 0.741819 0
M  V30 24 H -2.85608 -1.35793 -1.53315 0
M  V30 25 H -3.90207 -0.0821522 -1.30316 0
M  V30 26 H -3.06665 2.00771 2.50538 0
M  V30 27 H 2.49714 2.79985 -1.07112 0
M  V30 END ATOM
M  V30 BEGIN BOND
M  V30 1 1 1 2
M  V30 2 1 2 3
M  V30 3 1 3 4
M  V30 4 1 4 5
M  V30 5 1 5 6
M  V30 6 1 5 7
M  V30 7 1 7 8
M  V30 8 1 7 9
M  V30 9 1 9 10
M  V30 10 2 9 11
M  V30 11 1 2 12
M  V30 12 1 12 13
M  V30 13 2 12 14
M  V30 14 1 1 15
M  V30 15 1 1 16
M  V30 16 1 2 17 CFG=3
M  V30 17 1 3 18
M  V30 18 1 3 19
M  V30 19 1 4 20
M  V30 20 1 4 21
M  V30 21 1 5 22 CFG=1
M  V30 22 1 7 23 CFG=1
M  V30 23 1 8 24
M  V30 24 1 8 25
M  V30 25 1 10 26
M  V30 26 1 13 27
M  V30 END BOND
M  V30 END CTAB
M  END
