
     RDKit          3D

  0  0  0  0  0  0  0  0  0  0999 V3000
M  V30 BEGIN CTAB
M  V30 COUNTS 36 36 0 0 0
M  V30 BEGIN ATOM
M  V30 1 O 2.71141 -1.85938 -1.22328 0
M  V30 2 C 2.36054 -1.08259 -0.291144 0
M  V30 3 C 3.23926 0.0372974 0.0488047 0
M  V30 4 N 4.40407 0.0268639 -0.804921 0
M  V30 5 C 5.39346 1.02429 -0.65186 0
M  V30 6 S 6.69902 1.01722 -1.60483 0
M  V30 7 N 5.24055 2.018 0.326311 0
M  V30 8 N 1.12738 -1.3455 0.373592 0
M  V30 9 C 0.343914 -2.47097 -0.0402638 0
M  V30 10 C -0.93154 -2.68721 0.693447 0
M  V30 11 C -1.80635 -1.50169 0.528287 0
M  V30 12 C -1.78908 -0.483921 1.44946 0
M  V30 13 C -2.59792 0.643024 1.30763 0
M  V30 14 C -3.43709 0.742909 0.218746 0
M  V30 15 C -3.46096 -0.27729 -0.713223 0
M  V30 16 C -2.65702 -1.37166 -0.54988 0
M  V30 17 S -4.48668 2.10898 -0.0500806 0
M  V30 18 O -5.70547 1.6489 -0.812865 0
M  V30 19 O -4.94275 2.67915 1.28625 0
M  V30 20 N -3.72581 3.33233 -0.967473 0
M  V30 21 H 2.68667 1.0094 -0.116072 0
M  V30 22 H 3.52165 0.0634629 1.12782 0
M  V30 23 H 4.47582 -0.735068 -1.52192 0
M  V30 24 H 4.76627 1.8485 1.21685 0
M  V30 25 H 5.62766 2.96721 0.133988 0
M  V30 26 H 0.873674 -0.681631 1.13807 0
M  V30 27 H 0.137643 -2.32464 -1.13507 0
M  V30 28 H 1.00193 -3.38579 0.0493532 0
M  V30 29 H -0.797688 -2.9016 1.76617 0
M  V30 30 H -1.47051 -3.54168 0.191099 0
M  V30 31 H -1.15941 -0.510497 2.3229 0
M  V30 32 H -2.58988 1.43937 2.02023 0
M  V30 33 H -4.10826 -0.236312 -1.58473 0
M  V30 34 H -2.65313 -2.19818 -1.27234 0
M  V30 35 H -2.97714 2.92423 -1.5778 0
M  V30 36 H -3.31425 4.06449 -0.338688 0
M  V30 END ATOM
M  V30 BEGIN BOND
M  V30 1 2 1 2
M  V30 2 1 2 3
M  V30 3 1 3 4
M  V30 4 1 4 5
M  V30 5 2 5 6
M  V30 6 1 5 7
M  V30 7 1 2 8
M  V30 8 1 8 9
M  V30 9 1 9 10
M  V30 10 1 10 11
M  V30 11 2 11 12
M  V30 12 1 12 13
M  V30 13 2 13 14
M  V30 14 1 14 15
M  V30 15 2 15 16
M  V30 16 1 14 17
M  V30 17 2 17 18
M  V30 18 2 17 19
M  V30 19 1 17 20
M  V30 20 1 16 11
M  V30 21 1 3 21
M  V30 22 1 3 22
M  V30 23 1 4 23
M  V30 24 1 7 24
M  V30 25 1 7 25
M  V30 26 1 8 26
M  V30 27 1 9 27
M  V30 28 1 9 28
M  V30 29 1 10 29
M  V30 30 1 10 30
M  V30 31 1 12 31
M  V30 32 1 13 32
M  V30 33 1 15 33
M  V30 34 1 16 34
M  V30 35 1 20 35
M  V30 36 1 20 36
M  V30 END BOND
M  V30 END CTAB
M  END
