
     RDKit          3D

  0  0  0  0  0  0  0  0  0  0999 V3000
M  V30 BEGIN CTAB
M  V30 COUNTS 26 26 0 0 0
M  V30 BEGIN ATOM
M  V30 1 C 3.90733 -1.5709 -1.27599 0
M  V30 2 O 3.20397 -0.370006 -1.60767 0
M  V30 3 C 2.1437 0.00911377 -0.790619 0
M  V30 4 C 1.44712 1.15674 -1.08073 0
M  V30 5 C 0.390592 1.52713 -0.259765 0
M  V30 6 C 0.0275443 0.768148 0.837927 0
M  V30 7 C 0.730442 -0.389786 1.13058 0
M  V30 8 C 1.77277 -0.746899 0.313003 0
M  V30 9 S -1.30204 1.26297 1.85024 0
M  V30 10 O -1.4145 2.7721 1.80385 0
M  V30 11 O -1.0287 0.931944 3.3039 0
M  V30 12 N -2.79324 0.5556 1.41964 0
M  V30 13 C -3.11105 0.00659464 0.331406 0
M  V30 14 N -4.44641 -0.515361 0.224882 0
M  V30 15 N -2.2765 -0.143187 -0.793919 0
M  V30 16 H 4.73081 -1.74047 -1.99274 0
M  V30 17 H 4.33313 -1.42981 -0.251035 0
M  V30 18 H 3.20628 -2.43211 -1.25185 0
M  V30 19 H 1.6852 1.78927 -1.92462 0
M  V30 20 H -0.173338 2.42301 -0.464068 0
M  V30 21 H 0.424339 -0.962411 1.99415 0
M  V30 22 H 2.3422 -1.64053 0.509197 0
M  V30 23 H -5.21364 0.144012 -0.050058 0
M  V30 24 H -4.62967 -1.50228 0.414193 0
M  V30 25 H -2.31233 0.576461 -1.54853 0
M  V30 26 H -1.64399 -0.974869 -0.841378 0
M  V30 END ATOM
M  V30 BEGIN BOND
M  V30 1 1 1 2
M  V30 2 1 2 3
M  V30 3 2 3 4
M  V30 4 1 4 5
M  V30 5 2 5 6
M  V30 6 1 6 7
M  V30 7 2 7 8
M  V30 8 1 6 9
M  V30 9 2 9 10
M  V30 10 2 9 11
M  V30 11 1 9 12
M  V30 12 2 12 13
M  V30 13 1 13 14
M  V30 14 1 13 15
M  V30 15 1 8 3
M  V30 16 1 1 16
M  V30 17 1 1 17
M  V30 18 1 1 18
M  V30 19 1 4 19
M  V30 20 1 5 20
M  V30 21 1 7 21
M  V30 22 1 8 22
M  V30 23 1 14 23
M  V30 24 1 14 24
M  V30 25 1 15 25
M  V30 26 1 15 26
M  V30 END BOND
M  V30 END CTAB
M  END
