
     RDKit          3D

  0  0  0  0  0  0  0  0  0  0999 V3000
M  V30 BEGIN CTAB
M  V30 COUNTS 38 38 0 0 0
M  V30 BEGIN ATOM
M  V30 1 C -4.49505 -0.466237 0.793783 0
M  V30 2 C -3.09692 -1.01017 0.976565 0
M  V30 3 C -2.33853 -1.13072 -0.293979 0
M  V30 4 C -2.12111 0.116376 -1.06505 0
M  V30 5 C -1.33898 1.12809 -0.291954 0
M  V30 6 N -0.0380445 0.611151 0.0579385 0
M  V30 7 C 0.467818 0.644166 1.3615 0
M  V30 8 O -0.263773 1.15561 2.24523 0
M  V30 9 C 1.81785 0.0989776 1.70441 0
M  V30 10 C 2.27591 0.158959 2.99631 0
M  V30 11 S 3.81494 -0.565537 2.89463 0
M  V30 12 C 3.844 -0.924182 1.23782 0
M  V30 13 C 2.63575 -0.46477 0.792997 0
M  V30 14 S 5.11865 -1.7048 0.287308 0
M  V30 15 O 6.38113 -0.876619 0.328392 0
M  V30 16 O 5.37808 -3.08335 0.830611 0
M  V30 17 N 4.60726 -1.80927 -1.33624 0
M  V30 18 C -1.21804 2.44552 -1.0476 0
M  V30 19 N -0.558351 2.29476 -2.31517 0
M  V30 20 H -4.48136 0.58886 0.448625 0
M  V30 21 H -5.10996 -1.10884 0.135941 0
M  V30 22 H -4.97749 -0.464321 1.79362 0
M  V30 23 H -3.22315 -2.04217 1.38543 0
M  V30 24 H -2.60592 -0.419408 1.76547 0
M  V30 25 H -1.33015 -1.56418 -0.0250609 0
M  V30 26 H -2.78222 -1.91613 -0.963104 0
M  V30 27 H -3.04927 0.560138 -1.47758 0
M  V30 28 H -1.50812 -0.14804 -1.97505 0
M  V30 29 H -1.85807 1.3941 0.650448 0
M  V30 30 H 0.549438 0.193194 -0.704749 0
M  V30 31 H 1.74998 0.582863 3.87686 0
M  V30 32 H 2.36281 -0.565228 -0.286974 0
M  V30 33 H 5.42128 -1.88815 -1.97929 0
M  V30 34 H 4.11238 -0.909647 -1.5763 0
M  V30 35 H -0.657913 3.17602 -0.437636 0
M  V30 36 H -2.21699 2.89122 -1.23002 0
M  V30 37 H -1.16345 1.85361 -3.0292 0
M  V30 38 H -0.104417 3.16814 -2.62479 0
M  V30 END ATOM
M  V30 BEGIN BOND
M  V30 1 1 1 2
M  V30 2 1 2 3
M  V30 3 1 3 4
M  V30 4 1 4 5
M  V30 5 1 5 6
M  V30 6 1 6 7
M  V30 7 2 7 8
M  V30 8 1 7 9
M  V30 9 2 9 10
M  V30 10 1 10 11
M  V30 11 1 11 12
M  V30 12 2 12 13
M  V30 13 1 12 14
M  V30 14 2 14 15
M  V30 15 2 14 16
M  V30 16 1 14 17
M  V30 17 1 5 18
M  V30 18 1 18 19
M  V30 19 1 13 9
M  V30 20 1 1 20
M  V30 21 1 1 21
M  V30 22 1 1 22
M  V30 23 1 2 23
M  V30 24 1 2 24
M  V30 25 1 3 25
M  V30 26 1 3 26
M  V30 27 1 4 27
M  V30 28 1 4 28
M  V30 29 1 5 29
M  V30 30 1 6 30
M  V30 31 1 10 31
M  V30 32 1 13 32
M  V30 33 1 17 33
M  V30 34 1 17 34
M  V30 35 1 18 35
M  V30 36 1 18 36
M  V30 37 1 19 37
M  V30 38 1 19 38
M  V30 END BOND
M  V30 END CTAB
M  END
