
     RDKit          3D

  0  0  0  0  0  0  0  0  0  0999 V3000
M  V30 BEGIN CTAB
M  V30 COUNTS 44 46 0 0 0
M  V30 BEGIN ATOM
M  V30 1 C 6.3256 3.09653 0.025319 0
M  V30 2 O 4.99219 2.86915 0.420863 0
M  V30 3 C 4.42518 1.61877 0.243558 0
M  V30 4 C 5.18204 0.613046 -0.320827 0
M  V30 5 C 4.65633 -0.646009 -0.515081 0
M  V30 6 C 3.33614 -0.87985 -0.126036 0
M  V30 7 O 2.76728 -2.12423 -0.300888 0
M  V30 8 C 3.4346 -3.22607 -0.862913 0
M  V30 9 C 2.56747 0.114424 0.439027 0
M  V30 10 C 3.10106 1.36762 0.62879 0
M  V30 11 C 1.17461 -0.127017 0.85093 0
M  V30 12 O 0.488842 0.792803 1.36495 0
M  V30 13 O 0.56933 -1.35973 0.692007 0
M  V30 14 C -0.734364 -1.69675 1.04209 0
M  V30 15 C -1.7874 -0.914058 0.350143 0
M  V30 16 C -3.09296 -0.933958 0.815552 0
M  V30 17 C -4.11018 -0.22918 0.206326 0
M  V30 18 C -3.86184 0.538201 -0.9125 0
M  V30 19 C -2.56835 0.569726 -1.38963 0
M  V30 20 C -1.54272 -0.146095 -0.768404 0
M  V30 21 N -4.86378 1.22415 -1.50141 0
M  V30 22 C -6.12843 1.19909 -1.04273 0
M  V30 23 N -7.17104 1.93739 -1.68865 0
M  V30 24 N -6.37174 0.450886 0.0485327 0
M  V30 25 C -5.41041 -0.252145 0.674133 0
M  V30 26 N -5.66657 -1.04147 1.82521 0
M  V30 27 H 6.40503 2.93063 -1.08002 0
M  V30 28 H 6.97962 2.31088 0.489562 0
M  V30 29 H 6.71112 4.07117 0.321456 0
M  V30 30 H 6.21351 0.786058 -0.627726 0
M  V30 31 H 5.26184 -1.43671 -0.962443 0
M  V30 32 H 4.37418 -3.3991 -0.297701 0
M  V30 33 H 3.61032 -3.00447 -1.92671 0
M  V30 34 H 2.7586 -4.09922 -0.790182 0
M  V30 35 H 2.51242 2.14132 1.06519 0
M  V30 36 H -0.811689 -1.57221 2.16242 0
M  V30 37 H -0.891635 -2.77495 0.865746 0
M  V30 38 H -3.30031 -1.54031 1.70334 0
M  V30 39 H -2.35955 1.16527 -2.26333 0
M  V30 40 H -0.565106 -0.0882564 -1.17836 0
M  V30 41 H -7.36481 1.87426 -2.70893 0
M  V30 42 H -7.74906 2.55566 -1.10791 0
M  V30 43 H -6.15997 -0.712413 2.67233 0
M  V30 44 H -5.33541 -2.02282 1.81998 0
M  V30 END ATOM
M  V30 BEGIN BOND
M  V30 1 1 1 2
M  V30 2 1 2 3
M  V30 3 2 3 4
M  V30 4 1 4 5
M  V30 5 2 5 6
M  V30 6 1 6 7
M  V30 7 1 7 8
M  V30 8 1 6 9
M  V30 9 2 9 10
M  V30 10 1 9 11
M  V30 11 2 11 12
M  V30 12 1 11 13
M  V30 13 1 13 14
M  V30 14 1 14 15
M  V30 15 2 15 16
M  V30 16 1 16 17
M  V30 17 2 17 18
M  V30 18 1 18 19
M  V30 19 2 19 20
M  V30 20 1 18 21
M  V30 21 2 21 22
M  V30 22 1 22 23
M  V30 23 1 22 24
M  V30 24 2 24 25
M  V30 25 1 25 26
M  V30 26 1 10 3
M  V30 27 1 20 15
M  V30 28 1 25 17
M  V30 29 1 1 27
M  V30 30 1 1 28
M  V30 31 1 1 29
M  V30 32 1 4 30
M  V30 33 1 5 31
M  V30 34 1 8 32
M  V30 35 1 8 33
M  V30 36 1 8 34
M  V30 37 1 10 35
M  V30 38 1 14 36
M  V30 39 1 14 37
M  V30 40 1 16 38
M  V30 41 1 19 39
M  V30 42 1 20 40
M  V30 43 1 23 41
M  V30 44 1 23 42
M  V30 45 1 26 43
M  V30 46 1 26 44
M  V30 END BOND
M  V30 END CTAB
M  END
