
     RDKit          3D

  0  0  0  0  0  0  0  0  0  0999 V3000
M  V30 BEGIN CTAB
M  V30 COUNTS 47 47 0 0 0
M  V30 BEGIN ATOM
M  V30 1 C -4.41839 -1.6857 0.399966 0
M  V30 2 C -3.18931 -1.09898 -0.264994 0
M  V30 3 C -2.99933 0.350681 0.1054 0
M  V30 4 C -1.77011 0.864385 -0.588774 0
M  V30 5 N -0.627837 0.100329 -0.152023 0
M  V30 6 C 0.694765 0.359248 -0.656655 0
M  V30 7 O 0.884882 1.26348 -1.49518 0
M  V30 8 C 1.83417 -0.449362 -0.178235 0
M  V30 9 C 1.97942 -0.154393 1.2958 0
M  V30 10 C 3.34391 -0.551915 1.7459 0
M  V30 11 C 4.37197 0.286768 1.06881 0
M  V30 12 C 4.11923 0.55068 -0.390092 0
M  V30 13 C 3.07723 -0.372511 -0.97002 0
M  V30 14 C 3.74661 -1.75248 -1.09355 0
M  V30 15 N 2.79561 0.050478 -2.32437 0
M  V30 16 C -4.23339 1.1485 -0.223295 0
M  V30 17 C -4.11772 2.59342 0.116602 0
M  V30 18 N -2.80122 0.389258 1.54869 0
M  V30 19 H -4.39622 -2.77648 0.185534 0
M  V30 20 H -4.38395 -1.50566 1.48572 0
M  V30 21 H -5.30459 -1.26741 -0.102726 0
M  V30 22 H -2.34495 -1.73099 0.0550849 0
M  V30 23 H -3.28354 -1.20009 -1.36739 0
M  V30 24 H -1.57717 1.92995 -0.350279 0
M  V30 25 H -1.91035 0.774535 -1.69092 0
M  V30 26 H -0.744728 -0.656415 0.549345 0
M  V30 27 H 1.48726 -1.53055 -0.23267 0
M  V30 28 H 1.19825 -0.731687 1.8317 0
M  V30 29 H 1.75554 0.923117 1.49043 0
M  V30 30 H 3.48083 -1.6322 1.54249 0
M  V30 31 H 3.40918 -0.376204 2.84727 0
M  V30 32 H 4.37083 1.2907 1.57894 0
M  V30 33 H 5.37123 -0.199615 1.23407 0
M  V30 34 H 3.78269 1.58535 -0.584255 0
M  V30 35 H 5.06793 0.36432 -0.935752 0
M  V30 36 H 4.69315 -1.79279 -0.521234 0
M  V30 37 H 3.06456 -2.53839 -0.719227 0
M  V30 38 H 4.00057 -1.99794 -2.13805 0
M  V30 39 H 2.64327 -0.763972 -2.97231 0
M  V30 40 H 3.48275 0.717258 -2.70391 0
M  V30 41 H -5.05995 0.721667 0.403375 0
M  V30 42 H -4.51153 0.948508 -1.26979 0
M  V30 43 H -5.06611 3.08994 -0.134451 0
M  V30 44 H -3.25987 3.08584 -0.379958 0
M  V30 45 H -3.99476 2.68015 1.21596 0
M  V30 46 H -2.42229 -0.518546 1.90302 0
M  V30 47 H -2.23852 1.21572 1.83599 0
M  V30 END ATOM
M  V30 BEGIN BOND
M  V30 1 1 1 2
M  V30 2 1 2 3
M  V30 3 1 3 4
M  V30 4 1 4 5
M  V30 5 1 5 6
M  V30 6 2 6 7
M  V30 7 1 6 8
M  V30 8 1 8 9
M  V30 9 1 9 10
M  V30 10 1 10 11
M  V30 11 1 11 12
M  V30 12 1 12 13
M  V30 13 1 13 14
M  V30 14 1 13 15
M  V30 15 1 3 16
M  V30 16 1 16 17
M  V30 17 1 3 18
M  V30 18 1 13 8
M  V30 19 1 1 19
M  V30 20 1 1 20
M  V30 21 1 1 21
M  V30 22 1 2 22
M  V30 23 1 2 23
M  V30 24 1 4 24
M  V30 25 1 4 25
M  V30 26 1 5 26
M  V30 27 1 8 27
M  V30 28 1 9 28
M  V30 29 1 9 29
M  V30 30 1 10 30
M  V30 31 1 10 31
M  V30 32 1 11 32
M  V30 33 1 11 33
M  V30 34 1 12 34
M  V30 35 1 12 35
M  V30 36 1 14 36
M  V30 37 1 14 37
M  V30 38 1 14 38
M  V30 39 1 15 39
M  V30 40 1 15 40
M  V30 41 1 16 41
M  V30 42 1 16 42
M  V30 43 1 17 43
M  V30 44 1 17 44
M  V30 45 1 17 45
M  V30 46 1 18 46
M  V30 47 1 18 47
M  V30 END BOND
M  V30 END CTAB
M  END
