
     RDKit          3D

  0  0  0  0  0  0  0  0  0  0999 V3000
M  V30 BEGIN CTAB
M  V30 COUNTS 24 23 0 0 0
M  V30 BEGIN ATOM
M  V30 1 N 4.25927 1.00537 0.0049611 0
M  V30 2 C 3.61708 -0.217195 -0.139888 0
M  V30 3 C 2.38376 -0.29472 -1.01951 0
M  V30 4 O 1.46553 0.641402 -0.472322 0
M  V30 5 P 0.0928385 -0.110489 0.0720654 0
M  V30 6 O 0.143748 -1.77883 0.120337 0
M  V30 7 O 0.229572 0.265987 1.66141 0
M  V30 8 O -1.41059 0.501968 -0.291723 0
M  V30 9 C -2.18321 0.0401671 0.834985 0
M  V30 10 C -3.5766 0.525795 0.876172 0
M  V30 11 N -4.44952 0.126644 -0.158987 0
M  V30 12 H 3.98989 1.52908 0.897128 0
M  V30 13 H 4.40104 1.60666 -0.783458 0
M  V30 14 H 4.28453 -1.03486 -0.423567 0
M  V30 15 H 3.2801 -0.528165 0.913912 0
M  V30 16 H 2.01684 -1.29451 -1.09284 0
M  V30 17 H 2.70352 0.0926053 -2.02079 0
M  V30 18 H -0.296545 -2.03489 0.988986 0
M  V30 19 H -2.26319 -1.11389 0.609392 0
M  V30 20 H -1.62281 0.142182 1.74696 0
M  V30 21 H -3.97214 0.289397 1.89533 0
M  V30 22 H -3.56119 1.69579 0.866165 0
M  V30 23 H -4.64966 -0.858231 -0.212064 0
M  V30 24 H -4.88226 0.802734 -0.766568 0
M  V30 END ATOM
M  V30 BEGIN BOND
M  V30 1 1 1 2
M  V30 2 1 2 3
M  V30 3 1 3 4
M  V30 4 1 4 5
M  V30 5 1 5 6
M  V30 6 2 5 7
M  V30 7 1 5 8
M  V30 8 1 8 9
M  V30 9 1 9 10
M  V30 10 1 10 11
M  V30 11 1 1 12
M  V30 12 1 1 13
M  V30 13 1 2 14
M  V30 14 1 2 15
M  V30 15 1 3 16
M  V30 16 1 3 17
M  V30 17 1 6 18
M  V30 18 1 9 19
M  V30 19 1 9 20
M  V30 20 1 10 21
M  V30 21 1 10 22
M  V30 22 1 11 23
M  V30 23 1 11 24
M  V30 END BOND
M  V30 END CTAB
M  END
