
     RDKit          3D

  0  0  0  0  0  0  0  0  0  0999 V3000
M  V30 BEGIN CTAB
M  V30 COUNTS 88 96 0 0 0
M  V30 BEGIN ATOM
M  V30 1 C 9.03773 1.20647 -0.0456504 0
M  V30 2 C 7.5649 0.936567 -0.0434388 0
M  V30 3 C 6.80913 1.03678 1.10249 0
M  V30 4 C 5.45187 0.781988 1.07775 0
M  V30 5 C 4.81223 0.422858 -0.07964 0
M  V30 6 C 5.53782 0.315419 -1.23402 0
M  V30 7 C 6.8914 0.573653 -1.18931 0
M  V30 8 C 3.33969 0.150264 -0.0996417 0
M  V30 9 C 2.42551 1.22361 -0.176173 0
M  V30 10 N 1.28346 1.45894 0.474192 0
M  V30 11 C 0.796882 2.62925 0.0352894 0
M  V30 12 C 1.65628 3.18364 -0.941148 0
M  V30 13 C 2.67922 2.29932 -1.07314 0
M  V30 14 C -0.369942 3.3374 0.382607 0
M  V30 15 C -1.65522 2.85466 0.530116 0
M  V30 16 N -1.8219 1.55594 0.248425 0
M  V30 17 C -3.09589 1.16488 0.419658 0
M  V30 18 C -3.76706 2.2875 0.833476 0
M  V30 19 C -2.87153 3.33762 0.901928 0
M  V30 20 C -3.39626 -0.164597 0.162951 0
M  V30 21 C -2.49267 -1.18947 -0.182002 0
M  V30 22 C -2.85568 -2.06934 -1.22787 0
M  V30 23 C -1.80903 -2.93613 -1.34824 0
M  V30 24 C -0.84195 -2.56643 -0.380989 0
M  V30 25 N -1.28416 -1.50869 0.309329 0
M  V30 26 C 0.339987 -3.31629 -0.313867 0
M  V30 27 C 1.6455 -2.85526 -0.166499 0
M  V30 28 C 2.87183 -3.39192 0.0296515 0
M  V30 29 C 3.7693 -2.35931 0.0944775 0
M  V30 30 C 3.05362 -1.20368 -0.0665287 0
M  V30 31 N 1.77842 -1.52703 -0.221703 0
M  V30 32 C 0.321263 -4.8034 -0.430675 0
M  V30 33 C 0.0164472 -5.55617 0.687262 0
M  V30 34 C -0.0116729 -6.92972 0.622654 0
M  V30 35 C 0.267163 -7.54185 -0.56878 0
M  V30 36 N 0.245377 -8.9541 -0.664158 0
M  V30 37 C 0.575896 -6.80875 -1.7058 0
M  V30 38 C 0.59662 -5.4351 -1.61109 0
M  V30 39 C -4.85057 -0.459732 0.263919 0
M  V30 40 C -5.47954 -0.791379 1.4179 0
M  V30 41 C -6.85767 -1.04351 1.42741 0
M  V30 42 C -7.57148 -0.950865 0.247837 0
M  V30 43 C -9.04161 -1.2096 0.20528 0
M  V30 44 C -6.9451 -0.616165 -0.925117 0
M  V30 45 C -5.57599 -0.37206 -0.900016 0
M  V30 46 C -0.278281 4.81423 0.609185 0
M  V30 47 C -0.425939 5.59698 -0.510134 0
M  V30 48 C -0.352966 6.96905 -0.383505 0
M  V30 49 C -0.134716 7.49361 0.863294 0
M  V30 50 N -0.0517372 8.91499 1.03754 0
M  V30 51 C 0.012871 6.69076 1.98697 0
M  V30 52 C -0.0600633 5.31897 1.86016 0
M  V30 53 H 9.44435 0.667639 -0.933824 0
M  V30 54 H 9.51896 0.781546 0.849018 0
M  V30 55 H 9.15822 2.29203 -0.140186 0
M  V30 56 H 7.29664 1.31943 2.0254 0
M  V30 57 H 4.88136 0.874958 2.0282 0
M  V30 58 H 5.06379 0.027501 -2.19631 0
M  V30 59 H 7.44644 0.482223 -2.11443 0
M  V30 60 H 0.81048 0.809301 1.26211 0
M  V30 61 H 1.54624 4.13694 -1.49167 0
M  V30 62 H 3.55088 2.40535 -1.75025 0
M  V30 63 H -4.83026 2.29502 1.05748 0
M  V30 64 H -3.06027 4.36022 1.19005 0
M  V30 65 H -3.78158 -2.08202 -1.83078 0
M  V30 66 H -1.75651 -3.77177 -2.07501 0
M  V30 67 H -0.751535 -1.00015 1.15039 0
M  V30 68 H 3.07183 -4.45182 0.115264 0
M  V30 69 H 4.84018 -2.40052 0.241987 0
M  V30 70 H -0.200077 -5.04145 1.61734 0
M  V30 71 H -0.248061 -7.49281 1.49429 0
M  V30 72 H 1.13495 -9.47549 -0.611652 0
M  V30 73 H -0.646124 -9.45064 -0.78475 0
M  V30 74 H 0.79331 -7.33895 -2.64034 0
M  V30 75 H 0.834212 -4.8576 -2.48342 0
M  V30 76 H -4.91621 -0.858497 2.31991 0
M  V30 77 H -7.35047 -1.30612 2.34862 0
M  V30 78 H -9.30164 -2.12709 0.78459 0
M  V30 79 H -9.56805 -0.325723 0.578919 0
M  V30 80 H -9.36515 -1.39577 -0.836995 0
M  V30 81 H -7.49784 -0.541743 -1.85371 0
M  V30 82 H -5.13819 -0.110746 -1.85567 0
M  V30 83 H -0.596675 5.20172 -1.48874 0
M  V30 84 H -0.460722 7.63578 -1.22166 0
M  V30 85 H -0.560404 9.55966 0.413164 0
M  V30 86 H 0.525996 9.33838 1.80133 0
M  V30 87 H 0.182387 7.17597 2.9331 0
M  V30 88 H 0.0477333 4.67041 2.69794 0
M  V30 END ATOM
M  V30 BEGIN BOND
M  V30 1 1 1 2
M  V30 2 2 2 3
M  V30 3 1 3 4
M  V30 4 2 4 5
M  V30 5 1 5 6
M  V30 6 2 6 7
M  V30 7 1 5 8
M  V30 8 2 8 9
M  V30 9 1 9 10
M  V30 10 1 10 11
M  V30 11 1 11 12
M  V30 12 2 12 13
M  V30 13 2 11 14
M  V30 14 1 14 15
M  V30 15 2 15 16
M  V30 16 1 16 17
M  V30 17 1 17 18
M  V30 18 2 18 19
M  V30 19 2 17 20
M  V30 20 1 20 21
M  V30 21 2 21 22
M  V30 22 1 22 23
M  V30 23 2 23 24
M  V30 24 1 24 25
M  V30 25 1 24 26
M  V30 26 2 26 27
M  V30 27 1 27 28
M  V30 28 2 28 29
M  V30 29 1 29 30
M  V30 30 2 30 31
M  V30 31 1 26 32
M  V30 32 2 32 33
M  V30 33 1 33 34
M  V30 34 2 34 35
M  V30 35 1 35 36
M  V30 36 1 35 37
M  V30 37 2 37 38
M  V30 38 1 20 39
M  V30 39 2 39 40
M  V30 40 1 40 41
M  V30 41 2 41 42
M  V30 42 1 42 43
M  V30 43 1 42 44
M  V30 44 2 44 45
M  V30 45 1 14 46
M  V30 46 2 46 47
M  V30 47 1 47 48
M  V30 48 2 48 49
M  V30 49 1 49 50
M  V30 50 1 49 51
M  V30 51 2 51 52
M  V30 52 1 7 2
M  V30 53 1 30 8
M  V30 54 1 38 32
M  V30 55 1 45 39
M  V30 56 1 52 46
M  V30 57 1 13 9
M  V30 58 1 19 15
M  V30 59 1 25 21
M  V30 60 1 31 27
M  V30 61 1 1 53
M  V30 62 1 1 54
M  V30 63 1 1 55
M  V30 64 1 3 56
M  V30 65 1 4 57
M  V30 66 1 6 58
M  V30 67 1 7 59
M  V30 68 1 10 60
M  V30 69 1 12 61
M  V30 70 1 13 62
M  V30 71 1 18 63
M  V30 72 1 19 64
M  V30 73 1 22 65
M  V30 74 1 23 66
M  V30 75 1 25 67
M  V30 76 1 28 68
M  V30 77 1 29 69
M  V30 78 1 33 70
M  V30 79 1 34 71
M  V30 80 1 36 72
M  V30 81 1 36 73
M  V30 82 1 37 74
M  V30 83 1 38 75
M  V30 84 1 40 76
M  V30 85 1 41 77
M  V30 86 1 43 78
M  V30 87 1 43 79
M  V30 88 1 43 80
M  V30 89 1 44 81
M  V30 90 1 45 82
M  V30 91 1 47 83
M  V30 92 1 48 84
M  V30 93 1 50 85
M  V30 94 1 50 86
M  V30 95 1 51 87
M  V30 96 1 52 88
M  V30 END BOND
M  V30 END CTAB
M  END
