
     RDKit          3D

  0  0  0  0  0  0  0  0  0  0999 V3000
M  V30 BEGIN CTAB
M  V30 COUNTS 33 32 0 0 0
M  V30 BEGIN ATOM
M  V30 1 C -3.40074 -0.507585 -0.709584 0
M  V30 2 C -2.06335 0.223202 -0.380994 0
M  V30 3 C -2.45268 1.10695 0.798817 0
M  V30 4 N -2.9315 0.325913 1.91934 0
M  V30 5 C -1.11207 -0.834423 -0.0293302 0
M  V30 6 C 0.28244 -0.541492 0.321827 0
M  V30 7 C 1.19043 0.0460343 -0.695988 0
M  V30 8 C 0.738223 1.37135 -1.19703 0
M  V30 9 C 2.57074 0.288078 -0.0632143 0
M  V30 10 C 3.20125 -0.966496 0.445392 0
M  V30 11 N 4.50993 -0.625585 1.02127 0
M  V30 12 H -3.25132 -0.968198 -1.69976 0
M  V30 13 H -4.19105 0.241849 -0.659232 0
M  V30 14 H -3.50257 -1.3379 0.0185752 0
M  V30 15 H -1.87621 0.850265 -1.23207 0
M  V30 16 H -1.64452 1.80725 1.09303 0
M  V30 17 H -3.30445 1.72693 0.451028 0
M  V30 18 H -3.80247 -0.146136 1.64695 0
M  V30 19 H -2.23063 -0.296671 2.33229 0
M  V30 20 H -1.09163 -1.55386 -0.916903 0
M  V30 21 H -1.61088 -1.46919 0.781837 0
M  V30 22 H 0.393972 0.00579494 1.30055 0
M  V30 23 H 0.750515 -1.55663 0.577946 0
M  V30 24 H 1.37942 -0.679693 -1.54216 0
M  V30 25 H 0.184466 1.31675 -2.17086 0
M  V30 26 H 1.62298 2.03946 -1.45222 0
M  V30 27 H 0.193066 1.93117 -0.43532 0
M  V30 28 H 3.23399 0.71922 -0.833205 0
M  V30 29 H 2.43989 0.976968 0.809862 0
M  V30 30 H 3.37245 -1.71961 -0.323713 0
M  V30 31 H 2.63142 -1.40537 1.30719 0
M  V30 32 H 4.52089 0.361906 1.37424 0
M  V30 33 H 5.24999 -0.730259 0.310935 0
M  V30 END ATOM
M  V30 BEGIN BOND
M  V30 1 1 1 2
M  V30 2 1 2 3
M  V30 3 1 3 4
M  V30 4 1 2 5
M  V30 5 1 5 6
M  V30 6 1 6 7
M  V30 7 1 7 8
M  V30 8 1 7 9
M  V30 9 1 9 10
M  V30 10 1 10 11
M  V30 11 1 1 12
M  V30 12 1 1 13
M  V30 13 1 1 14
M  V30 14 1 2 15
M  V30 15 1 3 16
M  V30 16 1 3 17
M  V30 17 1 4 18
M  V30 18 1 4 19
M  V30 19 1 5 20
M  V30 20 1 5 21
M  V30 21 1 6 22
M  V30 22 1 6 23
M  V30 23 1 7 24
M  V30 24 1 8 25
M  V30 25 1 8 26
M  V30 26 1 8 27
M  V30 27 1 9 28
M  V30 28 1 9 29
M  V30 29 1 10 30
M  V30 30 1 10 31
M  V30 31 1 11 32
M  V30 32 1 11 33
M  V30 END BOND
M  V30 END CTAB
M  END
