
     RDKit          3D

  0  0  0  0  0  0  0  0  0  0999 V3000
M  V30 BEGIN CTAB
M  V30 COUNTS 30 30 0 0 0
M  V30 BEGIN ATOM
M  V30 1 N 1.98893 -2.34663 0.1438 0
M  V30 2 C 1.36521 -1.32566 -0.687657 0
M  V30 3 C 0.607377 -0.320177 0.184496 0 CFG=2
M  V30 4 C -0.429692 -1.0885 0.927964 0
M  V30 5 C -1.4903 -1.68162 0.0568001 0
M  V30 6 C -2.2408 -0.652757 -0.739452 0
M  V30 7 C -2.23834 0.680897 -0.0405693 0
M  V30 8 C -1.00585 1.45879 -0.174403 0
M  V30 9 N 0.184943 0.786711 -0.55723 0
M  V30 10 S 1.42329 2.00517 -0.509177 0
M  V30 11 O 2.67985 1.57416 -1.14215 0
M  V30 12 O 0.910404 3.21161 -1.25147 0
M  V30 13 N 1.62016 2.4547 1.14321 0
M  V30 14 H 2.76656 -1.8844 0.647227 0
M  V30 15 H 2.38321 -3.06496 -0.468868 0
M  V30 16 H 0.707073 -1.78312 -1.43738 0
M  V30 17 H 2.1933 -0.839999 -1.23993 0
M  V30 18 H 1.37075 0.0130896 0.947952 0
M  V30 19 H -0.852821 -0.519361 1.79453 0
M  V30 20 H 0.0986662 -1.95793 1.41943 0
M  V30 21 H -1.05505 -2.409 -0.624968 0
M  V30 22 H -2.1785 -2.26484 0.735517 0
M  V30 23 H -3.31074 -0.993103 -0.776674 0
M  V30 24 H -1.90629 -0.54185 -1.77119 0
M  V30 25 H -3.10364 1.24804 -0.446983 0
M  V30 26 H -2.49949 0.529383 1.04682 0
M  V30 27 H -0.799033 1.98868 0.801208 0
M  V30 28 H -1.16048 2.29079 -0.908103 0
M  V30 29 H 1.58475 3.46527 1.30893 0
M  V30 30 H 2.38655 1.96659 1.61834 0
M  V30 END ATOM
M  V30 BEGIN BOND
M  V30 1 1 1 2
M  V30 2 1 2 3
M  V30 3 1 3 4
M  V30 4 1 4 5
M  V30 5 1 5 6
M  V30 6 1 6 7
M  V30 7 1 7 8
M  V30 8 1 8 9
M  V30 9 1 9 10
M  V30 10 2 10 11
M  V30 11 2 10 12
M  V30 12 1 10 13
M  V30 13 1 9 3
M  V30 14 1 1 14
M  V30 15 1 1 15
M  V30 16 1 2 16
M  V30 17 1 2 17
M  V30 18 1 3 18 CFG=1
M  V30 19 1 4 19
M  V30 20 1 4 20
M  V30 21 1 5 21
M  V30 22 1 5 22
M  V30 23 1 6 23
M  V30 24 1 6 24
M  V30 25 1 7 25
M  V30 26 1 7 26
M  V30 27 1 8 27
M  V30 28 1 8 28
M  V30 29 1 13 29
M  V30 30 1 13 30
M  V30 END BOND
M  V30 END CTAB
M  END
