
     RDKit          3D

  0  0  0  0  0  0  0  0  0  0999 V3000
M  V30 BEGIN CTAB
M  V30 COUNTS 65 68 0 0 0
M  V30 BEGIN ATOM
M  V30 1 N 9.40085 3.47654 0.454028 0
M  V30 2 C 8.20918 3.51505 -0.318061 0
M  V30 3 N 8.02474 4.51036 -1.10225 0
M  V30 4 C 7.23135 2.45074 -0.215215 0
M  V30 5 C 7.46616 1.38663 0.646506 0
M  V30 6 C 6.60674 0.338698 0.812496 0
M  V30 7 C 5.43909 0.35828 0.0684932 0
M  V30 8 O 4.51887 -0.676109 0.187269 0
M  V30 9 C 4.78301 -1.74749 1.07197 0
M  V30 10 C 3.5997 -2.70568 0.97557 0
M  V30 11 C 3.51392 -3.16909 -0.442634 0
M  V30 12 C 2.41407 -4.12116 -0.743143 0
M  V30 13 C 1.02234 -3.60248 -0.484877 0
M  V30 14 C 0.735158 -2.38766 -1.31896 0
M  V30 15 O -0.510434 -1.82642 -1.19036 0
M  V30 16 C -1.14312 -1.23684 -0.139903 0
M  V30 17 C -2.47084 -0.773328 -0.330205 0
M  V30 18 C -3.16853 -0.168984 0.677982 0
M  V30 19 C -2.54229 -0.0198912 1.89707 0
M  V30 20 C -1.26087 -0.451852 2.12667 0
M  V30 21 C -0.554945 -1.06908 1.0876 0
M  V30 22 C -4.53803 0.302268 0.463558 0
M  V30 23 C -5.3021 0.921166 1.43204 0
M  V30 24 C -6.53132 1.22391 0.872235 0
M  V30 25 C -7.68216 1.82737 1.32651 0
M  V30 26 C -8.78159 1.98514 0.480533 0
M  V30 27 C -8.75022 1.54619 -0.823437 0
M  V30 28 C -7.56332 0.937636 -1.24969 0
M  V30 29 C -6.47056 0.774788 -0.42723 0
M  V30 30 O -5.27128 0.242802 -0.604302 0
M  V30 31 C -9.87009 1.6885 -1.74249 0
M  V30 32 N -9.73497 1.2005 -3.06601 0
M  V30 33 N -10.9493 2.23575 -1.37773 0
M  V30 34 C 5.14665 1.38262 -0.802604 0
M  V30 35 C 6.06282 2.43387 -0.935278 0
M  V30 36 H 10.0024 2.62865 0.494728 0
M  V30 37 H 9.70939 4.30342 1.00654 0
M  V30 38 H 7.2292 4.68843 -1.72004 0
M  V30 39 H 8.40129 1.40659 1.21847 0
M  V30 40 H 6.81429 -0.480784 1.49298 0
M  V30 41 H 5.72797 -2.23383 0.786178 0
M  V30 42 H 4.8485 -1.35006 2.1264 0
M  V30 43 H 3.73396 -3.57219 1.65492 0
M  V30 44 H 2.69707 -2.1482 1.28905 0
M  V30 45 H 4.47369 -3.68111 -0.67654 0
M  V30 46 H 3.38567 -2.27714 -1.0933 0
M  V30 47 H 2.46101 -4.33445 -1.84813 0
M  V30 48 H 2.49897 -5.0851 -0.181875 0
M  V30 49 H 0.333767 -4.45548 -0.796705 0
M  V30 50 H 0.877309 -3.51017 0.5815 0
M  V30 51 H 1.00079 -2.58888 -2.39927 0
M  V30 52 H 1.48119 -1.58179 -1.01496 0
M  V30 53 H -2.93302 -0.902593 -1.2889 0
M  V30 54 H -3.08611 0.451748 2.68571 0
M  V30 55 H -0.746632 -0.350507 3.06294 0
M  V30 56 H 0.448671 -1.38836 1.26569 0
M  V30 57 H -5.01991 1.13859 2.43787 0
M  V30 58 H -7.7293 2.17544 2.33343 0
M  V30 59 H -9.68793 2.45719 0.828913 0
M  V30 60 H -7.49903 0.58186 -2.26032 0
M  V30 61 H -10.3965 0.440586 -3.39553 0
M  V30 62 H -9.00034 1.58355 -3.69673 0
M  V30 63 H -11.1855 2.63161 -0.456006 0
M  V30 64 H 4.24699 1.43185 -1.39879 0
M  V30 65 H 5.83345 3.2384 -1.61934 0
M  V30 END ATOM
M  V30 BEGIN BOND
M  V30 1 1 1 2
M  V30 2 2 2 3 CFG=2
M  V30 3 1 2 4
M  V30 4 2 4 5
M  V30 5 1 5 6
M  V30 6 2 6 7
M  V30 7 1 7 8
M  V30 8 1 8 9
M  V30 9 1 9 10
M  V30 10 1 10 11
M  V30 11 1 11 12
M  V30 12 1 12 13
M  V30 13 1 13 14
M  V30 14 1 14 15
M  V30 15 1 15 16
M  V30 16 2 16 17
M  V30 17 1 17 18
M  V30 18 2 18 19
M  V30 19 1 19 20
M  V30 20 2 20 21
M  V30 21 1 18 22
M  V30 22 2 22 23
M  V30 23 1 23 24
M  V30 24 2 24 25
M  V30 25 1 25 26
M  V30 26 2 26 27
M  V30 27 1 27 28
M  V30 28 2 28 29
M  V30 29 1 29 30
M  V30 30 1 27 31
M  V30 31 1 31 32
M  V30 32 2 31 33 CFG=2
M  V30 33 1 7 34
M  V30 34 2 34 35
M  V30 35 1 35 4
M  V30 36 1 21 16
M  V30 37 1 30 22
M  V30 38 1 29 24
M  V30 39 1 1 36
M  V30 40 1 1 37
M  V30 41 1 3 38
M  V30 42 1 5 39
M  V30 43 1 6 40
M  V30 44 1 9 41
M  V30 45 1 9 42
M  V30 46 1 10 43
M  V30 47 1 10 44
M  V30 48 1 11 45
M  V30 49 1 11 46
M  V30 50 1 12 47
M  V30 51 1 12 48
M  V30 52 1 13 49
M  V30 53 1 13 50
M  V30 54 1 14 51
M  V30 55 1 14 52
M  V30 56 1 17 53
M  V30 57 1 19 54
M  V30 58 1 20 55
M  V30 59 1 21 56
M  V30 60 1 23 57
M  V30 61 1 25 58
M  V30 62 1 26 59
M  V30 63 1 28 60
M  V30 64 1 32 61
M  V30 65 1 32 62
M  V30 66 1 33 63
M  V30 67 1 34 64
M  V30 68 1 35 65
M  V30 END BOND
M  V30 END CTAB
M  END
