
     RDKit          3D

  0  0  0  0  0  0  0  0  0  0999 V3000
M  V30 BEGIN CTAB
M  V30 COUNTS 40 43 0 0 0
M  V30 BEGIN ATOM
M  V30 1 N 2.82844 2.41917 1.80975 0
M  V30 2 C 1.78331 1.96881 1.58101 0
M  V30 3 C 0.461635 1.44812 1.3073 0
M  V30 4 C -0.463008 1.55933 2.35473 0
M  V30 5 N -0.0722447 2.04369 3.63103 0
M  V30 6 N -1.72805 1.18687 2.09132 0
M  V30 7 C -2.10866 0.733868 0.912708 0
M  V30 8 C -1.19635 0.62197 -0.119412 0
M  V30 9 C 0.148549 0.984597 0.0542091 0
M  V30 10 C 1.14577 0.733081 -0.978497 0
M  V30 11 C 0.977928 1.23101 -2.28792 0
M  V30 12 C 1.99075 0.763608 -3.07358 0
M  V30 13 C 2.76625 -0.00722586 -2.2624 0
M  V30 14 N 2.23993 -0.0167135 -0.997563 0
M  V30 15 C 2.75852 -0.787689 0.0862568 0
M  V30 16 N 4.03052 -0.80163 0.462358 0
M  V30 17 C 4.40271 -1.54882 1.44851 0
M  V30 18 C 3.44767 -2.30885 2.07451 0
M  V30 19 S 2.04665 -1.88818 1.18241 0
M  V30 20 C -1.62282 0.0814128 -1.41481 0
M  V30 21 C -2.82049 -0.799295 -1.43563 0
M  V30 22 C -3.41287 -1.01679 -0.0836074 0
M  V30 23 C -3.529 0.31289 0.657463 0
M  V30 24 N -2.41763 -2.11388 -1.96627 0
M  V30 25 H 0.909503 1.95898 3.97248 0
M  V30 26 H -0.754657 2.49859 4.26542 0
M  V30 27 H 0.190878 1.89824 -2.64426 0
M  V30 28 H 2.14342 0.962456 -4.11331 0
M  V30 29 H 3.66561 -0.55343 -2.50663 0
M  V30 30 H 5.45689 -1.59272 1.79834 0
M  V30 31 H 3.58352 -2.99923 2.92686 0
M  V30 32 H -0.762032 -0.549575 -1.78925 0
M  V30 33 H -1.78261 0.893052 -2.17549 0
M  V30 34 H -3.607 -0.416723 -2.13784 0
M  V30 35 H -4.42631 -1.44187 -0.105601 0
M  V30 36 H -2.71046 -1.64931 0.513713 0
M  V30 37 H -4.09592 0.16451 1.57529 0
M  V30 38 H -3.97558 1.02406 -0.05781 0
M  V30 39 H -2.98916 -2.87506 -1.55042 0
M  V30 40 H -2.5036 -2.12131 -3.00539 0
M  V30 END ATOM
M  V30 BEGIN BOND
M  V30 1 3 1 2
M  V30 2 1 2 3
M  V30 3 2 3 4
M  V30 4 1 4 5
M  V30 5 1 4 6
M  V30 6 2 6 7
M  V30 7 1 7 8
M  V30 8 2 8 9
M  V30 9 1 9 10
M  V30 10 2 10 11
M  V30 11 1 11 12
M  V30 12 2 12 13
M  V30 13 1 13 14
M  V30 14 1 14 15
M  V30 15 2 15 16
M  V30 16 1 16 17
M  V30 17 2 17 18
M  V30 18 1 18 19
M  V30 19 1 8 20
M  V30 20 1 20 21
M  V30 21 1 21 22
M  V30 22 1 22 23
M  V30 23 1 21 24
M  V30 24 1 9 3
M  V30 25 1 14 10
M  V30 26 1 19 15
M  V30 27 1 23 7
M  V30 28 1 5 25
M  V30 29 1 5 26
M  V30 30 1 11 27
M  V30 31 1 12 28
M  V30 32 1 13 29
M  V30 33 1 17 30
M  V30 34 1 18 31
M  V30 35 1 20 32
M  V30 36 1 20 33
M  V30 37 1 21 34
M  V30 38 1 22 35
M  V30 39 1 22 36
M  V30 40 1 23 37
M  V30 41 1 23 38
M  V30 42 1 24 39
M  V30 43 1 24 40
M  V30 END BOND
M  V30 END CTAB
M  END
