
     RDKit          3D

  0  0  0  0  0  0  0  0  0  0999 V3000
M  V30 BEGIN CTAB
M  V30 COUNTS 19 19 0 0 0
M  V30 BEGIN ATOM
M  V30 1 C 3.38179 0.0129534 -0.0749345 0
M  V30 2 S 2.18448 -0.177741 -1.42101 0
M  V30 3 C 0.551514 -0.0788234 -0.705494 0
M  V30 4 C -0.107802 1.12703 -0.581252 0
M  V30 5 C -1.3878 1.17969 -0.0168862 0
M  V30 6 N -2.03418 2.44584 0.0930613 0
M  V30 7 N -1.98176 0.0415792 0.409166 0
M  V30 8 C -1.35714 -1.14553 0.297774 0
M  V30 9 C -0.0926311 -1.21477 -0.257329 0
M  V30 10 N -1.95556 -2.36615 0.737471 0
M  V30 11 H 4.41058 0.0988089 -0.420098 0
M  V30 12 H 3.12118 0.914164 0.522191 0
M  V30 13 H 3.33793 -0.869527 0.611005 0
M  V30 14 H 0.400594 2.01231 -0.933375 0
M  V30 15 H -3.06033 2.51607 0.209327 0
M  V30 16 H -1.46849 3.31868 0.0563598 0
M  V30 17 H 0.39536 -2.18758 -0.337921 0
M  V30 18 H -2.72466 -2.78461 0.197702 0
M  V30 19 H -1.6131 -2.84239 1.61424 0
M  V30 END ATOM
M  V30 BEGIN BOND
M  V30 1 1 1 2
M  V30 2 1 2 3
M  V30 3 2 3 4
M  V30 4 1 4 5
M  V30 5 1 5 6
M  V30 6 2 5 7
M  V30 7 1 7 8
M  V30 8 2 8 9
M  V30 9 1 8 10
M  V30 10 1 9 3
M  V30 11 1 1 11
M  V30 12 1 1 12
M  V30 13 1 1 13
M  V30 14 1 4 14
M  V30 15 1 6 15
M  V30 16 1 6 16
M  V30 17 1 9 17
M  V30 18 1 10 18
M  V30 19 1 10 19
M  V30 END BOND
M  V30 END CTAB
M  END
