
     RDKit          3D

  0  0  0  0  0  0  0  0  0  0999 V3000
M  V30 BEGIN CTAB
M  V30 COUNTS 55 59 0 0 0
M  V30 BEGIN ATOM
M  V30 1 N 2.47598 3.61164 -1.24974 0
M  V30 2 C 3.27879 2.86303 -0.357789 0
M  V30 3 N 3.28852 1.51911 -0.326246 0
M  V30 4 C 4.04856 0.802775 0.517706 0
M  V30 5 C 3.95679 -0.675543 0.439931 0
M  V30 6 S 2.6772 -1.33738 1.53607 0
M  V30 7 C 1.06061 -0.836252 1.01306 0
M  V30 8 N 0.571521 0.314149 1.50076 0
M  V30 9 C -0.669217 0.779044 1.15264 0
M  V30 10 S -1.57765 2.15765 1.56248 0
M  V30 11 C -2.97366 1.84992 0.632347 0
M  V30 12 C -2.6865 0.666219 0.0224858 0
M  V30 13 C -1.48164 0.100557 0.289933 0
M  V30 14 C -0.928051 -1.10696 -0.201409 0
M  V30 15 O -1.56356 -1.83787 -1.00708 0
M  V30 16 N 0.29157 -1.51055 0.175309 0
M  V30 17 C 0.796768 -2.72589 -0.346571 0
M  V30 18 C 1.29527 -2.75022 -1.62031 0
M  V30 19 C 1.79914 -3.94478 -2.15057 0
M  V30 20 C 1.79108 -5.10121 -1.38122 0
M  V30 21 C 1.28875 -5.07583 -0.0983117 0
M  V30 22 C 0.794347 -3.87165 0.401286 0
M  V30 23 C 0.264716 -3.87017 1.76938 0
M  V30 24 C -3.65703 -0.018953 -0.911291 0
M  V30 25 C -5.0115 0.583528 -0.905578 0
M  V30 26 C -5.15701 1.89541 -1.59386 0
M  V30 27 C -4.57619 3.06521 -0.842448 0
M  V30 28 C -4.18493 2.73881 0.561184 0
M  V30 29 N 4.84123 1.46505 1.37609 0
M  V30 30 C 4.849 2.83055 1.36338 0
M  V30 31 N 4.07151 3.51214 0.500805 0
M  V30 32 N 5.66269 3.58163 2.24307 0
M  V30 33 H 2.24693 3.20076 -2.1733 0
M  V30 34 H 2.10351 4.55467 -1.026 0
M  V30 35 H 4.93404 -1.15773 0.646404 0
M  V30 36 H 3.69544 -0.955441 -0.600227 0
M  V30 37 H 1.32887 -1.88015 -2.27032 0
M  V30 38 H 2.18622 -3.93889 -3.15633 0
M  V30 39 H 2.17928 -6.02236 -1.78895 0
M  V30 40 H 1.28533 -5.97776 0.494568 0
M  V30 41 H -0.424766 -4.74244 1.95579 0
M  V30 42 H -0.232616 -2.94141 2.05579 0
M  V30 43 H 1.13859 -4.05656 2.45522 0
M  V30 44 H -3.7687 -1.04905 -0.452374 0
M  V30 45 H -3.23499 -0.157802 -1.91108 0
M  V30 46 H -5.67032 -0.153041 -1.47196 0
M  V30 47 H -5.48339 0.636333 0.0894922 0
M  V30 48 H -4.81058 1.87932 -2.65097 0
M  V30 49 H -6.26877 2.08493 -1.67119 0
M  V30 50 H -3.69042 3.40801 -1.4306 0
M  V30 51 H -5.28654 3.91334 -0.846215 0
M  V30 52 H -5.00812 2.27923 1.10928 0
M  V30 53 H -3.87655 3.69566 1.08333 0
M  V30 54 H 6.69733 3.37043 2.2857 0
M  V30 55 H 5.32313 4.33679 2.86174 0
M  V30 END ATOM
M  V30 BEGIN BOND
M  V30 1 1 1 2
M  V30 2 2 2 3
M  V30 3 1 3 4
M  V30 4 1 4 5
M  V30 5 1 5 6
M  V30 6 1 6 7
M  V30 7 2 7 8
M  V30 8 1 8 9
M  V30 9 1 9 10
M  V30 10 1 10 11
M  V30 11 2 11 12
M  V30 12 1 12 13
M  V30 13 1 13 14
M  V30 14 2 14 15
M  V30 15 1 14 16
M  V30 16 1 16 17
M  V30 17 2 17 18
M  V30 18 1 18 19
M  V30 19 2 19 20
M  V30 20 1 20 21
M  V30 21 2 21 22
M  V30 22 1 22 23
M  V30 23 1 12 24
M  V30 24 1 24 25
M  V30 25 1 25 26
M  V30 26 1 26 27
M  V30 27 1 27 28
M  V30 28 2 4 29
M  V30 29 1 29 30
M  V30 30 2 30 31
M  V30 31 1 30 32
M  V30 32 1 31 2
M  V30 33 1 16 7
M  V30 34 1 22 17
M  V30 35 2 13 9
M  V30 36 1 28 11
M  V30 37 1 1 33
M  V30 38 1 1 34
M  V30 39 1 5 35
M  V30 40 1 5 36
M  V30 41 1 18 37
M  V30 42 1 19 38
M  V30 43 1 20 39
M  V30 44 1 21 40
M  V30 45 1 23 41
M  V30 46 1 23 42
M  V30 47 1 23 43
M  V30 48 1 24 44
M  V30 49 1 24 45
M  V30 50 1 25 46
M  V30 51 1 25 47
M  V30 52 1 26 48
M  V30 53 1 26 49
M  V30 54 1 27 50
M  V30 55 1 27 51
M  V30 56 1 28 52
M  V30 57 1 28 53
M  V30 58 1 32 54
M  V30 59 1 32 55
M  V30 END BOND
M  V30 END CTAB
M  END
