
     RDKit          3D

  0  0  0  0  0  0  0  0  0  0999 V3000
M  V30 BEGIN CTAB
M  V30 COUNTS 50 50 0 0 0
M  V30 BEGIN ATOM
M  V30 1 C 3.47316 2.86055 1.44011 0
M  V30 2 C 4.12125 1.6599 0.764074 0
M  V30 3 C 3.07666 0.569911 0.725342 0
M  V30 4 C 3.62172 -0.690167 0.0634467 0
M  V30 5 C 2.48671 -1.70239 0.0854647 0
M  V30 6 N 1.38704 -1.13758 -0.653496 0
M  V30 7 C 0.108846 -0.913143 -0.0701996 0
M  V30 8 O -0.0620381 -1.22653 1.15403 0
M  V30 9 C -0.955847 -0.339999 -0.873623 0
M  V30 10 C -2.30214 -0.2072 -0.214723 0
M  V30 11 C -2.85892 -1.52963 0.207568 0
M  V30 12 N -4.16459 -1.3937 0.84352 0
M  V30 13 C -3.23603 0.329614 -1.28794 0
M  V30 14 C -3.25803 1.83688 -1.30131 0
M  V30 15 C -3.7952 2.40759 -0.0104598 0
M  V30 16 C -3.34454 1.62063 1.17181 0
M  V30 17 C -2.1424 0.759764 0.925502 0
M  V30 18 C 2.92679 -3.02114 -0.518023 0
M  V30 19 N 3.34668 -2.85562 -1.89728 0
M  V30 20 H 2.95973 3.42649 0.637327 0
M  V30 21 H 4.26879 3.46797 1.94113 0
M  V30 22 H 2.7492 2.47047 2.20154 0
M  V30 23 H 5.01132 1.32892 1.33163 0
M  V30 24 H 4.43256 1.89269 -0.263142 0
M  V30 25 H 2.19127 0.954909 0.169836 0
M  V30 26 H 2.77271 0.365938 1.76967 0
M  V30 27 H 3.90663 -0.426327 -0.972534 0
M  V30 28 H 4.49842 -1.02172 0.628163 0
M  V30 29 H 2.15568 -1.90955 1.12209 0
M  V30 30 H 1.53059 -0.884002 -1.64962 0
M  V30 31 H -1.02732 -0.932711 -1.82899 0
M  V30 32 H -0.582014 0.66784 -1.22797 0
M  V30 33 H -2.25919 -2.13586 0.872247 0
M  V30 34 H -3.06895 -2.12544 -0.73076 0
M  V30 35 H -3.99173 -1.30838 1.88522 0
M  V30 36 H -4.64915 -2.33175 0.744985 0
M  V30 37 H -4.27995 -0.0153499 -1.13789 0
M  V30 38 H -2.93748 0.00339676 -2.30563 0
M  V30 39 H -2.27862 2.27956 -1.50259 0
M  V30 40 H -3.94928 2.14096 -2.11324 0
M  V30 41 H -4.92133 2.4303 -0.0987233 0
M  V30 42 H -3.49412 3.47583 0.0169357 0
M  V30 43 H -3.02707 2.3698 1.95762 0
M  V30 44 H -4.18844 1.0721 1.6388 0
M  V30 45 H -1.96907 0.167294 1.84978 0
M  V30 46 H -1.25338 1.39082 0.768276 0
M  V30 47 H 3.79912 -3.41804 0.0410759 0
M  V30 48 H 2.14174 -3.78302 -0.457923 0
M  V30 49 H 4.30747 -3.22853 -2.05707 0
M  V30 50 H 2.72273 -3.41235 -2.54643 0
M  V30 END ATOM
M  V30 BEGIN BOND
M  V30 1 1 1 2
M  V30 2 1 2 3
M  V30 3 1 3 4
M  V30 4 1 4 5
M  V30 5 1 5 6
M  V30 6 1 6 7
M  V30 7 2 7 8
M  V30 8 1 7 9
M  V30 9 1 9 10
M  V30 10 1 10 11
M  V30 11 1 11 12
M  V30 12 1 10 13
M  V30 13 1 13 14
M  V30 14 1 14 15
M  V30 15 1 15 16
M  V30 16 1 16 17
M  V30 17 1 5 18
M  V30 18 1 18 19
M  V30 19 1 17 10
M  V30 20 1 1 20
M  V30 21 1 1 21
M  V30 22 1 1 22
M  V30 23 1 2 23
M  V30 24 1 2 24
M  V30 25 1 3 25
M  V30 26 1 3 26
M  V30 27 1 4 27
M  V30 28 1 4 28
M  V30 29 1 5 29
M  V30 30 1 6 30
M  V30 31 1 9 31
M  V30 32 1 9 32
M  V30 33 1 11 33
M  V30 34 1 11 34
M  V30 35 1 12 35
M  V30 36 1 12 36
M  V30 37 1 13 37
M  V30 38 1 13 38
M  V30 39 1 14 39
M  V30 40 1 14 40
M  V30 41 1 15 41
M  V30 42 1 15 42
M  V30 43 1 16 43
M  V30 44 1 16 44
M  V30 45 1 17 45
M  V30 46 1 17 46
M  V30 47 1 18 47
M  V30 48 1 18 48
M  V30 49 1 19 49
M  V30 50 1 19 50
M  V30 END BOND
M  V30 END CTAB
M  END
