
     RDKit          3D

  0  0  0  0  0  0  0  0  0  0999 V3000
M  V30 BEGIN CTAB
M  V30 COUNTS 35 36 0 0 0
M  V30 BEGIN ATOM
M  V30 1 N -5.58247 -0.228034 1.15198 0
M  V30 2 C -4.78353 -0.993006 0.231702 0
M  V30 3 N -5.21059 -2.13811 -0.109077 0
M  V30 4 C -3.5327 -0.465177 -0.284482 0
M  V30 5 C -2.75463 -1.17538 -1.16206 0
M  V30 6 C -1.54954 -0.653398 -1.65215 0
M  V30 7 C -1.12592 0.591591 -1.25562 0
M  V30 8 C -1.93218 1.27654 -0.373572 0
M  V30 9 C -3.10228 0.801173 0.11914 0
M  V30 10 C 0.14245 1.16756 -1.75721 0
M  V30 11 C 1.30094 0.830259 -0.905983 0
M  V30 12 C 2.01917 -0.314337 -1.1713 0
M  V30 13 C 3.11418 -0.675121 -0.402398 0
M  V30 14 C 3.53415 0.0919235 0.659994 0
M  V30 15 C 2.81519 1.24605 0.932678 0
M  V30 16 C 1.72414 1.59633 0.158741 0
M  V30 17 C 4.69409 -0.277145 1.48562 0
M  V30 18 N 5.38773 -1.32911 1.27466 0
M  V30 19 N 5.05892 0.570397 2.56221 0
M  V30 20 H -5.13872 0.317419 1.912 0
M  V30 21 H -6.59856 -0.232389 1.04217 0
M  V30 22 H -4.78752 -2.81005 -0.739394 0
M  V30 23 H -3.07923 -2.16011 -1.48237 0
M  V30 24 H -0.978054 -1.2716 -2.34846 0
M  V30 25 H -1.5973 2.26397 -0.0583808 0
M  V30 26 H -3.74727 1.32446 0.811551 0
M  V30 27 H 0.0163482 2.28494 -1.85495 0
M  V30 28 H 0.266131 0.808142 -2.80129 0
M  V30 29 H 1.76963 -0.989371 -1.98841 0
M  V30 30 H 3.67347 -1.59163 -0.630382 0
M  V30 31 H 3.16285 1.83338 1.77174 0
M  V30 32 H 1.1814 2.48958 0.383222 0
M  V30 33 H 5.26255 -2.04083 0.548462 0
M  V30 34 H 5.25889 1.5871 2.40855 0
M  V30 35 H 5.11826 0.124938 3.52308 0
M  V30 END ATOM
M  V30 BEGIN BOND
M  V30 1 1 1 2
M  V30 2 2 2 3 CFG=2
M  V30 3 1 2 4
M  V30 4 2 4 5
M  V30 5 1 5 6
M  V30 6 2 6 7
M  V30 7 1 7 8
M  V30 8 2 8 9
M  V30 9 1 7 10
M  V30 10 1 10 11
M  V30 11 2 11 12
M  V30 12 1 12 13
M  V30 13 2 13 14
M  V30 14 1 14 15
M  V30 15 2 15 16
M  V30 16 1 14 17
M  V30 17 2 17 18 CFG=2
M  V30 18 1 17 19
M  V30 19 1 9 4
M  V30 20 1 16 11
M  V30 21 1 1 20
M  V30 22 1 1 21
M  V30 23 1 3 22
M  V30 24 1 5 23
M  V30 25 1 6 24
M  V30 26 1 8 25
M  V30 27 1 9 26
M  V30 28 1 10 27
M  V30 29 1 10 28
M  V30 30 1 12 29
M  V30 31 1 13 30
M  V30 32 1 15 31
M  V30 33 1 16 32
M  V30 34 1 18 33
M  V30 35 1 19 34
M  V30 36 1 19 35
M  V30 END BOND
M  V30 END CTAB
M  END
