
     RDKit          3D

  0  0  0  0  0  0  0  0  0  0999 V3000
M  V30 BEGIN CTAB
M  V30 COUNTS 39 40 0 0 0
M  V30 BEGIN ATOM
M  V30 1 O 0.237256 0.496909 0.678485 0
M  V30 2 C -0.0659681 -0.441418 -0.105595 0
M  V30 3 N 1.00579 -1.19234 -0.653952 0
M  V30 4 C 2.35002 -0.934261 -0.362408 0
M  V30 5 C 3.0098 -1.54148 0.704825 0
M  V30 6 N 2.31763 -2.45723 1.54051 0
M  V30 7 N 4.29799 -1.28059 0.967111 0
M  V30 8 C 4.99141 -0.435384 0.22085 0
M  V30 9 N 4.38852 0.178933 -0.82922 0
M  V30 10 C 3.11317 -0.0591797 -1.11431 0
M  V30 11 O 2.57244 0.532829 -2.10778 0
M  V30 12 C 5.16612 1.08909 -1.61864 0
M  V30 13 N 6.36495 -0.157469 0.500836 0
M  V30 14 C -1.4903 -0.715688 -0.415189 0
M  V30 15 O -2.28218 0.18247 0.270206 0
M  V30 16 C -3.62504 0.313889 0.29662 0
M  V30 17 C -4.44089 -0.518346 -0.43178 0
M  V30 18 C -5.83142 -0.378919 -0.401706 0
M  V30 19 C -6.38205 0.603268 0.366808 0
M  V30 20 C -5.60014 1.45526 1.10929 0
M  V30 21 C -4.20919 1.29444 1.06178 0
M  V30 22 C -3.33625 2.1834 1.83994 0
M  V30 23 Cl -8.12663 0.779278 0.405424 0
M  V30 24 H 0.772284 -1.96844 -1.30143 0
M  V30 25 H 2.28697 -2.34235 2.58523 0
M  V30 26 H 1.80582 -3.28847 1.15924 0
M  V30 27 H 4.49236 1.6507 -2.29632 0
M  V30 28 H 5.93964 0.590544 -2.23751 0
M  V30 29 H 5.66536 1.87439 -0.980319 0
M  V30 30 H 6.88669 0.544963 -0.0304521 0
M  V30 31 H 6.84755 -0.674872 1.25627 0
M  V30 32 H -1.69843 -1.74426 0.00356964 0
M  V30 33 H -1.69285 -0.785103 -1.50027 0
M  V30 34 H -4.04694 -1.3067 -1.05153 0
M  V30 35 H -6.45154 -1.05315 -0.989367 0
M  V30 36 H -6.0449 2.23796 1.72136 0
M  V30 37 H -2.50772 2.50654 1.15259 0
M  V30 38 H -2.843 1.6507 2.66589 0
M  V30 39 H -3.83634 3.1101 2.17603 0
M  V30 END ATOM
M  V30 BEGIN BOND
M  V30 1 2 1 2
M  V30 2 1 2 3
M  V30 3 1 3 4
M  V30 4 2 4 5
M  V30 5 1 5 6
M  V30 6 1 5 7
M  V30 7 2 7 8
M  V30 8 1 8 9
M  V30 9 1 9 10
M  V30 10 2 10 11
M  V30 11 1 9 12
M  V30 12 1 8 13
M  V30 13 1 2 14
M  V30 14 1 14 15
M  V30 15 1 15 16
M  V30 16 2 16 17
M  V30 17 1 17 18
M  V30 18 2 18 19
M  V30 19 1 19 20
M  V30 20 2 20 21
M  V30 21 1 21 22
M  V30 22 1 19 23
M  V30 23 1 10 4
M  V30 24 1 21 16
M  V30 25 1 3 24
M  V30 26 1 6 25
M  V30 27 1 6 26
M  V30 28 1 12 27
M  V30 29 1 12 28
M  V30 30 1 12 29
M  V30 31 1 13 30
M  V30 32 1 13 31
M  V30 33 1 14 32
M  V30 34 1 14 33
M  V30 35 1 17 34
M  V30 36 1 18 35
M  V30 37 1 20 36
M  V30 38 1 22 37
M  V30 39 1 22 38
M  V30 40 1 22 39
M  V30 END BOND
M  V30 END CTAB
M  END
