
     RDKit          3D

  0  0  0  0  0  0  0  0  0  0999 V3000
M  V30 BEGIN CTAB
M  V30 COUNTS 18 18 0 0 0
M  V30 BEGIN ATOM
M  V30 1 N -2.28081 -0.946387 0.659639 0
M  V30 2 C -2.13031 0.188866 -0.14808 0
M  V30 3 N -3.33492 0.817124 -0.607333 0
M  V30 4 N -1.05787 0.681228 -0.488807 0
M  V30 5 C 0.297989 0.420639 -0.290167 0
M  V30 6 N 1.23094 1.25041 -0.872678 0
M  V30 7 C 2.5431 1.06998 -0.731605 0
M  V30 8 C 3.09175 0.0439725 0.00486676 0
M  V30 9 Cl 4.82314 -0.150632 0.160033 0
M  V30 10 C 2.20661 -0.814759 0.608478 0
M  V30 11 C 0.828419 -0.608771 0.448554 0
M  V30 12 H -2.07088 -1.8901 0.259539 0
M  V30 13 H -2.59437 -0.942312 1.66136 0
M  V30 14 H -3.93219 1.41749 -0.00408249 0
M  V30 15 H -3.62638 0.664878 -1.59365 0
M  V30 16 H 3.27821 1.74149 -1.2032 0
M  V30 17 H 2.57044 -1.64012 1.20021 0
M  V30 18 H 0.157116 -1.30298 0.936927 0
M  V30 END ATOM
M  V30 BEGIN BOND
M  V30 1 1 1 2
M  V30 2 1 2 3
M  V30 3 2 2 4
M  V30 4 1 4 5
M  V30 5 2 5 6
M  V30 6 1 6 7
M  V30 7 2 7 8
M  V30 8 1 8 9
M  V30 9 1 8 10
M  V30 10 2 10 11
M  V30 11 1 11 5
M  V30 12 1 1 12
M  V30 13 1 1 13
M  V30 14 1 3 14
M  V30 15 1 3 15
M  V30 16 1 7 16
M  V30 17 1 10 17
M  V30 18 1 11 18
M  V30 END BOND
M  V30 END CTAB
M  END
