
     RDKit          3D

  0  0  0  0  0  0  0  0  0  0999 V3000
M  V30 BEGIN CTAB
M  V30 COUNTS 23 23 0 0 0
M  V30 BEGIN ATOM
M  V30 1 N -3.56358 0.592007 1.64599 0
M  V30 2 P -2.83732 0.71097 0.0435378 0
M  V30 3 N -3.38864 -0.580031 -0.973783 0
M  V30 4 O -3.3147 2.01562 -0.547514 0
M  V30 5 N -1.0994 0.725861 0.21153 0
M  V30 6 C -0.25657 -0.236921 -0.370996 0
M  V30 7 O -0.709181 -1.19861 -1.07226 0
M  V30 8 C 1.19571 -0.190671 -0.206134 0
M  V30 9 C 2.01917 -1.05864 -0.927851 0
M  V30 10 C 3.38228 -1.02769 -0.778734 0
M  V30 11 C 4.00955 -0.155387 0.0753425 0
M  V30 12 C 3.22064 0.706141 0.794343 0
M  V30 13 C 1.84248 0.676231 0.64486 0
M  V30 14 H -2.91517 -0.0354734 2.20107 0
M  V30 15 H -4.46938 0.108038 1.56788 0
M  V30 16 H -4.30608 -0.310598 -1.43784 0
M  V30 17 H -3.66677 -1.37368 -0.322252 0
M  V30 18 H -0.693385 1.49144 0.770271 0
M  V30 19 H 1.53589 -1.75594 -1.61084 0
M  V30 20 H 4.00324 -1.71152 -1.34998 0
M  V30 21 H 5.08347 -0.179346 0.148102 0
M  V30 22 H 3.67828 1.41803 1.48813 0
M  V30 23 H 1.24945 1.37018 1.22828 0
M  V30 END ATOM
M  V30 BEGIN BOND
M  V30 1 1 1 2
M  V30 2 1 2 3
M  V30 3 2 2 4
M  V30 4 1 2 5
M  V30 5 1 5 6
M  V30 6 2 6 7
M  V30 7 1 6 8
M  V30 8 2 8 9
M  V30 9 1 9 10
M  V30 10 2 10 11
M  V30 11 1 11 12
M  V30 12 2 12 13
M  V30 13 1 13 8
M  V30 14 1 1 14
M  V30 15 1 1 15
M  V30 16 1 3 16
M  V30 17 1 3 17
M  V30 18 1 5 18
M  V30 19 1 9 19
M  V30 20 1 10 20
M  V30 21 1 11 21
M  V30 22 1 12 22
M  V30 23 1 13 23
M  V30 END BOND
M  V30 END CTAB
M  END
