
     RDKit          3D

  0  0  0  0  0  0  0  0  0  0999 V3000
M  V30 BEGIN CTAB
M  V30 COUNTS 21 21 0 0 0
M  V30 BEGIN ATOM
M  V30 1 N -3.03608 -0.630709 0.205868 0
M  V30 2 C -1.72175 -0.219312 -0.339481 0
M  V30 3 C -1.75885 1.26337 -0.378912 0
M  V30 4 F -0.661282 1.89816 -0.853132 0
M  V30 5 F -2.8584 1.61773 -1.17536 0
M  V30 6 F -2.03267 1.75899 0.900009 0
M  V30 7 C -0.710319 -0.839782 0.559182 0
M  V30 8 C 0.702294 -0.559271 0.194509 0
M  V30 9 N 1.4874 -1.28747 -0.655994 0
M  V30 10 N 2.68132 -0.726695 -0.710649 0
M  V30 11 C 2.73046 0.359944 0.0768603 0
M  V30 12 N 1.50272 0.436007 0.617756 0
M  V30 13 N 3.83156 1.24147 0.297006 0
M  V30 14 H -2.97244 -0.848829 1.21386 0
M  V30 15 H -3.47676 -1.35266 -0.371076 0
M  V30 16 H -1.6772 -0.639121 -1.36124 0
M  V30 17 H -0.922325 -0.524662 1.61629 0
M  V30 18 H -0.803954 -1.95329 0.56782 0
M  V30 19 H 1.17957 -2.13139 -1.16122 0
M  V30 20 H 3.70568 2.24847 0.532366 0
M  V30 21 H 4.81105 0.889044 0.225533 0
M  V30 END ATOM
M  V30 BEGIN BOND
M  V30 1 1 1 2
M  V30 2 1 2 3
M  V30 3 1 3 4
M  V30 4 1 3 5
M  V30 5 1 3 6
M  V30 6 1 2 7
M  V30 7 1 7 8
M  V30 8 1 8 9
M  V30 9 1 9 10
M  V30 10 2 10 11
M  V30 11 1 11 12
M  V30 12 1 11 13
M  V30 13 2 12 8
M  V30 14 1 1 14
M  V30 15 1 1 15
M  V30 16 1 2 16
M  V30 17 1 7 17
M  V30 18 1 7 18
M  V30 19 1 9 19
M  V30 20 1 13 20
M  V30 21 1 13 21
M  V30 END BOND
M  V30 END CTAB
M  END
