
     RDKit          3D

  0  0  0  0  0  0  0  0  0  0999 V3000
M  V30 BEGIN CTAB
M  V30 COUNTS 26 26 0 0 0
M  V30 BEGIN ATOM
M  V30 1 N -2.49618 2.07324 1.03385 0
M  V30 2 C -2.58129 0.711853 0.637713 0
M  V30 3 S -4.0486 0.00179632 0.693285 0
M  V30 4 N -1.44189 -0.00502376 0.210894 0
M  V30 5 C -1.59486 -1.3827 -0.177678 0
M  V30 6 C -0.428126 -2.23198 0.203795 0
M  V30 7 C 0.900562 -1.64957 -0.136835 0
M  V30 8 C 0.876688 -0.219072 -0.546556 0
M  V30 9 C -0.152612 0.613011 0.160097 0
M  V30 10 S 2.5139 0.450683 -0.247825 0
M  V30 11 O 3.53691 -0.371696 -0.976509 0
M  V30 12 O 2.84277 0.357606 1.21953 0
M  V30 13 N 2.6316 2.08033 -0.772632 0
M  V30 14 H -3.31592 2.70039 0.934175 0
M  V30 15 H -1.62047 2.4874 1.43352 0
M  V30 16 H -1.81453 -1.42706 -1.26778 0
M  V30 17 H -2.50379 -1.84157 0.311114 0
M  V30 18 H -0.5865 -3.23878 -0.281512 0
M  V30 19 H -0.453289 -2.43907 1.29806 0
M  V30 20 H 1.66086 -1.78043 0.660718 0
M  V30 21 H 1.30198 -2.24064 -1.01203 0
M  V30 22 H 0.701238 -0.161884 -1.64422 0
M  V30 23 H 0.211302 0.930038 1.17547 0
M  V30 24 H -0.248007 1.5683 -0.422345 0
M  V30 25 H 2.5202 2.74059 0.0516299 0
M  V30 26 H 3.58806 2.27425 -1.15507 0
M  V30 END ATOM
M  V30 BEGIN BOND
M  V30 1 1 1 2
M  V30 2 2 2 3
M  V30 3 1 2 4
M  V30 4 1 4 5
M  V30 5 1 5 6
M  V30 6 1 6 7
M  V30 7 1 7 8
M  V30 8 1 8 9
M  V30 9 1 8 10
M  V30 10 2 10 11
M  V30 11 2 10 12
M  V30 12 1 10 13
M  V30 13 1 9 4
M  V30 14 1 1 14
M  V30 15 1 1 15
M  V30 16 1 5 16
M  V30 17 1 5 17
M  V30 18 1 6 18
M  V30 19 1 6 19
M  V30 20 1 7 20
M  V30 21 1 7 21
M  V30 22 1 8 22
M  V30 23 1 9 23
M  V30 24 1 9 24
M  V30 25 1 13 25
M  V30 26 1 13 26
M  V30 END BOND
M  V30 END CTAB
M  END
