
     RDKit          3D

  0  0  0  0  0  0  0  0  0  0999 V3000
M  V30 BEGIN CTAB
M  V30 COUNTS 44 46 0 0 0
M  V30 BEGIN ATOM
M  V30 1 C 5.95222 0.128148 1.57084 0
M  V30 2 C 5.59495 0.812208 0.288911 0
M  V30 3 C 5.57484 -0.232201 -0.816139 0
M  V30 4 S 4.33844 -1.49104 -0.401725 0
M  V30 5 C 2.69999 -0.817553 -0.423085 0
M  V30 6 N 2.1991 -0.287083 0.69837 0
M  V30 7 C 0.95859 0.230217 0.703959 0
M  V30 8 C 0.171296 0.232779 -0.426042 0
M  V30 9 C 0.711704 -0.322659 -1.57687 0
M  V30 10 N 1.9748 -0.838454 -1.54478 0
M  V30 11 C -1.1569 0.765963 -0.493768 0
M  V30 12 C -1.42268 2.10622 -0.647119 0
M  V30 13 C -0.344401 3.03791 -0.746151 0
M  V30 14 N 0.555255 3.79058 -0.836329 0
M  V30 15 C -2.74847 2.53269 -0.702895 0
M  V30 16 N -3.00747 3.93821 -0.863731 0
M  V30 17 N -3.77176 1.66694 -0.610628 0
M  V30 18 C -3.53401 0.330062 -0.458074 0
M  V30 19 C -2.22509 -0.0861137 -0.403175 0
M  V30 20 C -1.96584 -1.53582 -0.223651 0
M  V30 21 C -2.95827 -1.92693 0.886169 0
M  V30 22 N -2.57951 -3.14737 1.5353 0
M  V30 23 C -4.31811 -1.94088 0.292184 0
M  V30 24 C -4.64548 -0.638603 -0.364906 0
M  V30 25 H 6.62349 0.797024 2.15858 0
M  V30 26 H 6.48367 -0.813309 1.33428 0
M  V30 27 H 5.00358 -0.0715995 2.14656 0
M  V30 28 H 6.3871 1.5724 0.0568543 0
M  V30 29 H 4.62871 1.35128 0.336872 0
M  V30 30 H 5.35379 0.210774 -1.8022 0
M  V30 31 H 6.56051 -0.736544 -0.846984 0
M  V30 32 H 0.527153 0.670812 1.61106 0
M  V30 33 H 0.198054 -0.380298 -2.51699 0
M  V30 34 H -3.5345 4.30183 -1.70013 0
M  V30 35 H -2.69294 4.64753 -0.175272 0
M  V30 36 H -0.966858 -1.75942 0.172736 0
M  V30 37 H -2.15203 -2.11054 -1.13719 0
M  V30 38 H -2.91881 -1.11878 1.64688 0
M  V30 39 H -2.1733 -2.97559 2.48229 0
M  V30 40 H -3.37048 -3.84006 1.61341 0
M  V30 41 H -5.09341 -2.19968 1.05533 0
M  V30 42 H -4.38521 -2.8081 -0.431863 0
M  V30 43 H -5.55401 -0.156704 0.0720897 0
M  V30 44 H -4.97768 -0.888242 -1.42013 0
M  V30 END ATOM
M  V30 BEGIN BOND
M  V30 1 1 1 2
M  V30 2 1 2 3
M  V30 3 1 3 4
M  V30 4 1 4 5
M  V30 5 2 5 6
M  V30 6 1 6 7
M  V30 7 2 7 8
M  V30 8 1 8 9
M  V30 9 2 9 10
M  V30 10 1 8 11
M  V30 11 2 11 12
M  V30 12 1 12 13
M  V30 13 3 13 14
M  V30 14 1 12 15
M  V30 15 1 15 16
M  V30 16 2 15 17
M  V30 17 1 17 18
M  V30 18 2 18 19
M  V30 19 1 19 20
M  V30 20 1 20 21
M  V30 21 1 21 22
M  V30 22 1 21 23
M  V30 23 1 23 24
M  V30 24 1 10 5
M  V30 25 1 19 11
M  V30 26 1 24 18
M  V30 27 1 1 25
M  V30 28 1 1 26
M  V30 29 1 1 27
M  V30 30 1 2 28
M  V30 31 1 2 29
M  V30 32 1 3 30
M  V30 33 1 3 31
M  V30 34 1 7 32
M  V30 35 1 9 33
M  V30 36 1 16 34
M  V30 37 1 16 35
M  V30 38 1 20 36
M  V30 39 1 20 37
M  V30 40 1 21 38
M  V30 41 1 22 39
M  V30 42 1 22 40
M  V30 43 1 23 41
M  V30 44 1 23 42
M  V30 45 1 24 43
M  V30 46 1 24 44
M  V30 END BOND
M  V30 END CTAB
M  END
