
     RDKit          3D

  0  0  0  0  0  0  0  0  0  0999 V3000
M  V30 BEGIN CTAB
M  V30 COUNTS 37 38 0 0 0
M  V30 BEGIN ATOM
M  V30 1 N -3.27796 -3.55887 0.0276696 0
M  V30 2 S -2.60311 -2.70408 1.36373 0
M  V30 3 O -1.48552 -3.54809 1.91401 0
M  V30 4 O -3.61703 -2.54144 2.43368 0
M  V30 5 C -1.91702 -1.17658 0.874847 0
M  V30 6 C -2.71411 -0.0551524 0.879292 0
M  V30 7 C -2.16723 1.15832 0.489892 0
M  V30 8 C -0.824518 1.2284 0.100646 0
M  V30 9 Cl -0.245399 2.80095 -0.404406 0
M  V30 10 C -0.00120357 0.121881 0.0869553 0
M  V30 11 C -0.605861 -1.08788 0.491329 0
M  V30 12 N 1.3678 0.138719 -0.26472 0
M  V30 13 C 1.929 -1.18604 -0.60773 0
M  V30 14 C 3.14883 -0.982322 -1.51575 0
M  V30 15 N 4.07776 -0.217373 -0.71286 0
M  V30 16 C 3.66084 1.01909 -0.149037 0
M  V30 17 C 2.16977 1.304 -0.265326 0
M  V30 18 N 5.38235 -0.652817 -0.467866 0
M  V30 19 O 5.7539 -0.821083 0.730075 0
M  V30 20 S -3.10056 2.61568 0.467501 0
M  V30 21 N -3.19214 3.32864 -1.09364 0
M  V30 22 O -4.51294 2.28496 0.895052 0
M  V30 23 O -2.56256 3.60334 1.48944 0
M  V30 24 H -4.12631 -4.05523 0.363865 0
M  V30 25 H -3.44834 -2.96675 -0.798922 0
M  V30 26 H -3.74996 -0.0960628 1.17699 0
M  V30 27 H -0.00534016 -1.97911 0.498809 0
M  V30 28 H 2.33505 -1.59629 0.336923 0
M  V30 29 H 1.20172 -1.82407 -1.12543 0
M  V30 30 H 2.87767 -0.502566 -2.45996 0
M  V30 31 H 3.56815 -1.9944 -1.68879 0
M  V30 32 H 4.26809 1.8306 -0.622835 0
M  V30 33 H 3.97751 1.03591 0.933689 0
M  V30 34 H 2.08184 1.95294 -1.15756 0
M  V30 35 H 1.94459 1.94779 0.628456 0
M  V30 36 H -2.62339 2.81308 -1.77255 0
M  V30 37 H -2.96437 4.36189 -1.07547 0
M  V30 END ATOM
M  V30 BEGIN BOND
M  V30 1 1 1 2
M  V30 2 2 2 3
M  V30 3 2 2 4
M  V30 4 1 2 5
M  V30 5 2 5 6
M  V30 6 1 6 7
M  V30 7 2 7 8
M  V30 8 1 8 9
M  V30 9 1 8 10
M  V30 10 2 10 11
M  V30 11 1 10 12
M  V30 12 1 12 13
M  V30 13 1 13 14
M  V30 14 1 14 15
M  V30 15 1 15 16
M  V30 16 1 16 17
M  V30 17 1 15 18
M  V30 18 2 18 19
M  V30 19 1 7 20
M  V30 20 1 20 21
M  V30 21 2 20 22
M  V30 22 2 20 23
M  V30 23 1 11 5
M  V30 24 1 17 12
M  V30 25 1 1 24
M  V30 26 1 1 25
M  V30 27 1 6 26
M  V30 28 1 11 27
M  V30 29 1 13 28
M  V30 30 1 13 29
M  V30 31 1 14 30
M  V30 32 1 14 31
M  V30 33 1 16 32
M  V30 34 1 16 33
M  V30 35 1 17 34
M  V30 36 1 17 35
M  V30 37 1 21 36
M  V30 38 1 21 37
M  V30 END BOND
M  V30 END CTAB
M  END
