
     RDKit          3D

  0  0  0  0  0  0  0  0  0  0999 V3000
M  V30 BEGIN CTAB
M  V30 COUNTS 45 48 0 0 0
M  V30 BEGIN ATOM
M  V30 1 N -2.15093 -1.69499 1.55208 0
M  V30 2 C -1.56035 -0.502115 1.05173 0
M  V30 3 N -0.248001 -0.287791 1.23811 0
M  V30 4 C 0.443406 0.775619 0.832623 0
M  V30 5 C 1.90671 0.9217 1.08961 0
M  V30 6 N 2.61049 0.469698 -0.0663705 0
M  V30 7 C 2.40564 -0.890915 -0.425961 0
M  V30 8 C 3.77213 -1.52701 -0.676405 0
M  V30 9 C 4.61798 -0.31164 -0.981251 0
M  V30 10 C 4.03341 0.697972 0.0185015 0
M  V30 11 S 6.33299 -0.604706 -0.618888 0
M  V30 12 O 6.53217 -1.16644 0.737814 0
M  V30 13 O 6.81327 -1.63436 -1.61762 0
M  V30 14 N 7.23091 0.830869 -0.866094 0
M  V30 15 N -0.258063 1.70996 0.177242 0
M  V30 16 C -1.6043 1.55812 -0.0500191 0
M  V30 17 C -2.32051 0.468288 0.363635 0
M  V30 18 C -3.63845 0.451507 0.0723611 0
M  V30 19 C -4.75232 -0.548925 0.345216 0
M  V30 20 C -5.46979 -0.890931 -0.931132 0
M  V30 21 C -5.82264 0.296694 -1.76689 0
M  V30 22 C -5.60609 1.59518 -0.977656 0
M  V30 23 C -4.13249 1.5515 -0.621737 0
M  V30 24 S -2.77394 2.52837 -0.829385 0
M  V30 25 H -2.22845 -2.50789 0.871775 0
M  V30 26 H -2.50301 -1.82079 2.51558 0
M  V30 27 H 2.08162 1.96349 1.35435 0
M  V30 28 H 2.22151 0.30718 1.9655 0
M  V30 29 H 1.898 -0.898224 -1.43416 0
M  V30 30 H 1.80654 -1.49519 0.273688 0
M  V30 31 H 4.12711 -1.9803 0.291395 0
M  V30 32 H 3.74881 -2.26181 -1.49299 0
M  V30 33 H 4.46401 0.00877647 -2.01959 0
M  V30 34 H 4.34023 1.71549 -0.255725 0
M  V30 35 H 4.3697 0.372753 1.01902 0
M  V30 36 H 6.731 1.55675 -1.40829 0
M  V30 37 H 7.6523 1.19945 0.0114321 0
M  V30 38 H -4.40202 -1.46914 0.79767 0
M  V30 39 H -5.43998 -0.0643536 1.08132 0
M  V30 40 H -4.903 -1.62326 -1.52634 0
M  V30 41 H -6.41902 -1.39505 -0.640313 0
M  V30 42 H -6.86009 0.233729 -2.12902 0
M  V30 43 H -5.09818 0.335435 -2.62452 0
M  V30 44 H -6.17813 1.59245 -0.0505939 0
M  V30 45 H -5.77019 2.43484 -1.65164 0
M  V30 END ATOM
M  V30 BEGIN BOND
M  V30 1 1 1 2
M  V30 2 2 2 3
M  V30 3 1 3 4
M  V30 4 1 4 5
M  V30 5 1 5 6
M  V30 6 1 6 7
M  V30 7 1 7 8
M  V30 8 1 8 9
M  V30 9 1 9 10
M  V30 10 1 9 11
M  V30 11 2 11 12
M  V30 12 2 11 13
M  V30 13 1 11 14
M  V30 14 2 4 15
M  V30 15 1 15 16
M  V30 16 2 16 17
M  V30 17 1 17 18
M  V30 18 1 18 19
M  V30 19 1 19 20
M  V30 20 1 20 21
M  V30 21 1 21 22
M  V30 22 1 22 23
M  V30 23 1 23 24
M  V30 24 1 17 2
M  V30 25 2 23 18
M  V30 26 1 10 6
M  V30 27 1 24 16
M  V30 28 1 1 25
M  V30 29 1 1 26
M  V30 30 1 5 27
M  V30 31 1 5 28
M  V30 32 1 7 29
M  V30 33 1 7 30
M  V30 34 1 8 31
M  V30 35 1 8 32
M  V30 36 1 9 33
M  V30 37 1 10 34
M  V30 38 1 10 35
M  V30 39 1 14 36
M  V30 40 1 14 37
M  V30 41 1 19 38
M  V30 42 1 19 39
M  V30 43 1 20 40
M  V30 44 1 20 41
M  V30 45 1 21 42
M  V30 46 1 21 43
M  V30 47 1 22 44
M  V30 48 1 22 45
M  V30 END BOND
M  V30 END CTAB
M  END
