
     RDKit          3D

  0  0  0  0  0  0  0  0  0  0999 V3000
M  V30 BEGIN CTAB
M  V30 COUNTS 43 46 0 0 0
M  V30 BEGIN ATOM
M  V30 1 N 7.929 1.39341 1.56156 0
M  V30 2 C 6.7513 0.850142 0.99981 0
M  V30 3 N 6.77366 -0.0360088 0.00930863 0
M  V30 4 C 5.65296 -0.559947 -0.533013 0
M  V30 5 N 5.75634 -1.4973 -1.58381 0
M  V30 6 C 4.44252 -0.169157 -0.0503397 0
M  V30 7 C 4.39983 0.754129 0.982414 0
M  V30 8 C 3.18707 1.15152 1.47257 0
M  V30 9 C 2.00882 0.618153 0.921942 0
M  V30 10 C 2.0043 -0.290828 -0.0930293 0
M  V30 11 N 0.861406 -0.84806 -0.671598 0
M  V30 12 C -0.475468 -0.599661 -0.34325 0
M  V30 13 O -0.854225 0.189672 0.552492 0
M  V30 14 C -1.59662 -1.29584 -1.07774 0
M  V30 15 C -2.91487 -0.878557 -0.56154 0
M  V30 16 C -3.44637 -1.62072 0.483089 0
M  V30 17 C -4.66592 -1.25025 0.974966 0
M  V30 18 C -5.36027 -0.1763 0.462045 0
M  V30 19 C -6.5768 0.127331 1.01325 0
M  V30 20 C -7.26202 1.21365 0.482712 0
M  V30 21 C -6.71839 1.94685 -0.561957 0
M  V30 22 C -5.49625 1.62951 -1.1044 0
M  V30 23 C -4.80925 0.540231 -0.572361 0
M  V30 24 C -3.5808 0.200077 -1.09816 0
M  V30 25 C 3.27979 -0.669364 -0.564529 0
M  V30 26 Cl 3.29097 -1.84649 -1.87959 0
M  V30 27 N 5.55379 1.23456 1.47488 0
M  V30 28 H 8.47278 0.884494 2.27875 0
M  V30 29 H 8.27308 2.34362 1.24875 0
M  V30 30 H 5.7686 -1.13454 -2.55524 0
M  V30 31 H 5.82174 -2.50801 -1.37388 0
M  V30 32 H 3.13187 1.86244 2.26864 0
M  V30 33 H 1.08886 0.963859 1.3432 0
M  V30 34 H 0.987098 -1.557 -1.46796 0
M  V30 35 H -1.50235 -1.01612 -2.14044 0
M  V30 36 H -1.4075 -2.37263 -0.961302 0
M  V30 37 H -2.93024 -2.47463 0.91546 0
M  V30 38 H -5.0883 -1.83312 1.79875 0
M  V30 39 H -6.96698 -0.469973 1.82836 0
M  V30 40 H -8.22168 1.44571 0.92438 0
M  V30 41 H -7.3278 2.78011 -0.911723 0
M  V30 42 H -5.09335 2.20128 -1.90468 0
M  V30 43 H -3.14035 0.773768 -1.92587 0
M  V30 END ATOM
M  V30 BEGIN BOND
M  V30 1 1 1 2
M  V30 2 2 2 3
M  V30 3 1 3 4
M  V30 4 1 4 5
M  V30 5 2 4 6
M  V30 6 1 6 7
M  V30 7 1 7 8
M  V30 8 2 8 9
M  V30 9 1 9 10
M  V30 10 1 10 11
M  V30 11 1 11 12
M  V30 12 2 12 13
M  V30 13 1 12 14
M  V30 14 1 14 15
M  V30 15 2 15 16
M  V30 16 1 16 17
M  V30 17 2 17 18
M  V30 18 1 18 19
M  V30 19 2 19 20
M  V30 20 1 20 21
M  V30 21 2 21 22
M  V30 22 1 22 23
M  V30 23 2 23 24
M  V30 24 2 10 25
M  V30 25 1 25 26
M  V30 26 2 7 27
M  V30 27 1 27 2
M  V30 28 1 25 6
M  V30 29 1 24 15
M  V30 30 1 23 18
M  V30 31 1 1 28
M  V30 32 1 1 29
M  V30 33 1 5 30
M  V30 34 1 5 31
M  V30 35 1 8 32
M  V30 36 1 9 33
M  V30 37 1 11 34
M  V30 38 1 14 35
M  V30 39 1 14 36
M  V30 40 1 16 37
M  V30 41 1 17 38
M  V30 42 1 19 39
M  V30 43 1 20 40
M  V30 44 1 21 41
M  V30 45 1 22 42
M  V30 46 1 24 43
M  V30 END BOND
M  V30 END CTAB
M  END
