
     RDKit          3D

  0  0  0  0  0  0  0  0  0  0999 V3000
M  V30 BEGIN CTAB
M  V30 COUNTS 30 31 0 0 0
M  V30 BEGIN ATOM
M  V30 1 N 4.49636 -0.269781 0.626309 0
M  V30 2 C 3.21024 -0.535286 1.24143 0
M  V30 3 C 2.15707 -0.326646 0.184671 0 CFG=1
M  V30 4 O 0.866314 -0.560626 0.681645 0
M  V30 5 C 0.103887 -0.168559 -0.420161 0 CFG=2
M  V30 6 C 0.62054 1.20342 -0.759389 0
M  V30 7 C 2.0506 1.1256 -0.226904 0 CFG=2
M  V30 8 O 2.97339 1.44603 -1.21556 0
M  V30 9 N -1.2964 -0.232194 -0.206875 0
M  V30 10 C -1.9161 -0.0575964 0.970416 0
M  V30 11 C -3.29709 -0.14231 1.06364 0
M  V30 12 I -4.27125 0.130951 2.90795 0
M  V30 13 C -4.07857 -0.409529 -0.0546636 0
M  V30 14 N -5.47594 -0.50531 -0.0140515 0
M  V30 15 N -3.41297 -0.577212 -1.21317 0
M  V30 16 C -2.09157 -0.492177 -1.28115 0
M  V30 17 O -1.55449 -0.66545 -2.41875 0
M  V30 18 H 4.46726 -0.370488 -0.4051 0
M  V30 19 H 5.26256 -0.824631 0.990889 0
M  V30 20 H 3.21513 -1.57921 1.57946 0
M  V30 21 H 3.0994 0.175887 2.06924 0
M  V30 22 H 2.29054 -0.973047 -0.684242 0
M  V30 23 H 0.414606 -0.848986 -1.26225 0
M  V30 24 H 0.0558661 2.01733 -0.260223 0
M  V30 25 H 0.700179 1.36241 -1.8647 0
M  V30 26 H 2.12357 1.78277 0.656196 0
M  V30 27 H 2.58819 1.22744 -2.0931 0
M  V30 28 H -1.30702 0.148555 1.83074 0
M  V30 29 H -5.93288 -1.23391 0.559025 0
M  V30 30 H -6.06144 0.152563 -0.557426 0
M  V30 END ATOM
M  V30 BEGIN BOND
M  V30 1 1 1 2
M  V30 2 1 2 3
M  V30 3 1 3 4
M  V30 4 1 4 5
M  V30 5 1 5 6
M  V30 6 1 6 7
M  V30 7 1 7 8
M  V30 8 1 5 9
M  V30 9 1 9 10
M  V30 10 2 10 11
M  V30 11 1 11 12
M  V30 12 1 11 13
M  V30 13 1 13 14
M  V30 14 2 13 15
M  V30 15 1 15 16
M  V30 16 2 16 17
M  V30 17 1 7 3
M  V30 18 1 16 9
M  V30 19 1 1 18
M  V30 20 1 1 19
M  V30 21 1 2 20
M  V30 22 1 2 21
M  V30 23 1 3 22 CFG=3
M  V30 24 1 5 23 CFG=3
M  V30 25 1 6 24
M  V30 26 1 6 25
M  V30 27 1 7 26 CFG=1
M  V30 28 1 8 27
M  V30 29 1 10 28
M  V30 30 1 14 29
M  V30 31 1 14 30
M  V30 END BOND
M  V30 END CTAB
M  END
