
     RDKit          3D

  0  0  0  0  0  0  0  0  0  0999 V3000
M  V30 BEGIN CTAB
M  V30 COUNTS 25 25 0 0 0
M  V30 BEGIN ATOM
M  V30 1 O -2.16486 0.0184546 -2.03411 0
M  V30 2 C -2.34334 0.474345 -0.726357 0
M  V30 3 C -1.57401 -0.33082 0.248615 0
M  V30 4 C -0.0897678 -0.200414 0.0522238 0
M  V30 5 N 0.646139 0.905113 0.226355 0
M  V30 6 N 1.94185 0.66697 -0.00550286 0
M  V30 7 C 2.03146 -0.629411 -0.333272 0
M  V30 8 N 0.78987 -1.14831 -0.295141 0
M  V30 9 N 3.24038 -1.32741 -0.665986 0
M  V30 10 C 3.03103 1.6408 0.107104 0
M  V30 11 N -1.87963 -1.7197 0.323643 0
M  V30 12 C -1.92038 0.280077 1.6419 0
M  V30 13 H -3.05894 -0.32167 -2.37335 0
M  V30 14 H -3.43662 0.447977 -0.474185 0
M  V30 15 H -2.05452 1.54972 -0.662647 0
M  V30 16 H 4.1558 -0.984194 -0.258258 0
M  V30 17 H 3.19613 -2.14402 -1.30796 0
M  V30 18 H 3.98031 1.18155 -0.170513 0
M  V30 19 H 2.73966 2.48233 -0.534697 0
M  V30 20 H 3.11216 1.96573 1.17009 0
M  V30 21 H -2.72184 -1.96594 0.842459 0
M  V30 22 H -1.73428 -2.20103 -0.583383 0
M  V30 23 H -1.18688 1.10881 1.75527 0
M  V30 24 H -2.92063 0.741102 1.6218 0
M  V30 25 H -1.77908 -0.490066 2.43589 0
M  V30 END ATOM
M  V30 BEGIN BOND
M  V30 1 1 1 2
M  V30 2 1 2 3
M  V30 3 1 3 4
M  V30 4 2 4 5
M  V30 5 1 5 6
M  V30 6 1 6 7
M  V30 7 2 7 8
M  V30 8 1 7 9
M  V30 9 1 6 10
M  V30 10 1 3 11
M  V30 11 1 3 12
M  V30 12 1 8 4
M  V30 13 1 1 13
M  V30 14 1 2 14
M  V30 15 1 2 15
M  V30 16 1 9 16
M  V30 17 1 9 17
M  V30 18 1 10 18
M  V30 19 1 10 19
M  V30 20 1 10 20
M  V30 21 1 11 21
M  V30 22 1 11 22
M  V30 23 1 12 23
M  V30 24 1 12 24
M  V30 25 1 12 25
M  V30 END BOND
M  V30 END CTAB
M  END
