
     RDKit          3D

  0  0  0  0  0  0  0  0  0  0999 V3000
M  V30 BEGIN CTAB
M  V30 COUNTS 25 26 0 0 0
M  V30 BEGIN ATOM
M  V30 1 N 4.25168 -1.10075 0.484643 0
M  V30 2 C 4.12199 0.298752 0.13394 0
M  V30 3 C 2.67337 0.604928 -0.0220454 0
M  V30 4 N 2.15442 1.80309 -0.345017 0
M  V30 5 N 0.83676 1.68641 -0.389938 0
M  V30 6 C 0.475689 0.424198 -0.100372 0
M  V30 7 N 1.61525 -0.23284 0.124461 0
M  V30 8 C -0.89083 -0.122393 -0.0425386 0
M  V30 9 C -1.09437 -1.445 0.270641 0
M  V30 10 C -2.39427 -1.92043 0.31473 0
M  V30 11 C -3.46407 -1.07882 0.0484859 0
M  V30 12 C -3.26824 0.243415 -0.265034 0
M  V30 13 C -1.96265 0.705793 -0.305602 0
M  V30 14 N -4.37056 1.11435 -0.540289 0
M  V30 15 H 4.75424 -1.62689 -0.274359 0
M  V30 16 H 3.31217 -1.53345 0.682909 0
M  V30 17 H 4.539 0.89816 0.968066 0
M  V30 18 H 4.67225 0.541902 -0.777965 0
M  V30 19 H 2.74192 2.65098 -0.520269 0
M  V30 20 H -0.26677 -2.10898 0.479774 0
M  V30 21 H -2.61751 -2.95126 0.555216 0
M  V30 22 H -4.49459 -1.46065 0.0846314 0
M  V30 23 H -1.80052 1.75997 -0.555228 0
M  V30 24 H -4.91036 1.00177 -1.43557 0
M  V30 25 H -4.61402 1.84777 0.162215 0
M  V30 END ATOM
M  V30 BEGIN BOND
M  V30 1 1 1 2
M  V30 2 1 2 3
M  V30 3 1 3 4
M  V30 4 1 4 5
M  V30 5 2 5 6
M  V30 6 1 6 7
M  V30 7 1 6 8
M  V30 8 2 8 9
M  V30 9 1 9 10
M  V30 10 2 10 11
M  V30 11 1 11 12
M  V30 12 2 12 13
M  V30 13 1 12 14
M  V30 14 2 7 3
M  V30 15 1 13 8
M  V30 16 1 1 15
M  V30 17 1 1 16
M  V30 18 1 2 17
M  V30 19 1 2 18
M  V30 20 1 4 19
M  V30 21 1 9 20
M  V30 22 1 10 21
M  V30 23 1 11 22
M  V30 24 1 13 23
M  V30 25 1 14 24
M  V30 26 1 14 25
M  V30 END BOND
M  V30 END CTAB
M  END
