
     RDKit          3D

  0  0  0  0  0  0  0  0  0  0999 V3000
M  V30 BEGIN CTAB
M  V30 COUNTS 37 37 0 0 0
M  V30 BEGIN ATOM
M  V30 1 C -5.75603 0.345703 -2.06162 0
M  V30 2 C -5.07229 0.477674 -0.705558 0
M  V30 3 N -4.1767 -0.644411 -0.572461 0
M  V30 4 C -2.77444 -0.4344 -0.452674 0
M  V30 5 O -2.3525 0.748993 -0.467099 0
M  V30 6 C -1.8996 -1.62108 -0.318577 0
M  V30 7 N -0.530468 -1.22082 -0.188621 0
M  V30 8 C -0.0781904 -0.440887 0.899097 0
M  V30 9 O -0.898025 -0.0964317 1.7785 0
M  V30 10 C 1.32883 -0.0431526 0.993393 0
M  V30 11 S 2.32616 -0.650015 -0.38078 0
M  V30 12 C 4.01924 -0.105963 -0.161542 0
M  V30 13 N 4.98406 -0.419624 -1.0478 0
M  V30 14 C 6.24015 -0.0256448 -0.900758 0
M  V30 15 N 7.25823 -0.368989 -1.85597 0
M  V30 16 N 6.5693 0.708311 0.160399 0
M  V30 17 C 5.65243 1.06443 1.09671 0
M  V30 18 N 4.39262 0.636908 0.896746 0
M  V30 19 N 6.0421 1.84279 2.20616 0
M  V30 20 C -6.09591 0.405862 0.415639 0
M  V30 21 H -5.76275 -0.719146 -2.36896 0
M  V30 22 H -5.20182 0.93719 -2.78966 0
M  V30 23 H -6.80068 0.7257 -1.95571 0
M  V30 24 H -4.51997 1.43148 -0.697746 0
M  V30 25 H -4.56642 -1.60904 -0.564921 0
M  V30 26 H -1.98509 -2.28878 -1.21567 0
M  V30 27 H -2.22047 -2.23995 0.571462 0
M  V30 28 H 0.186268 -1.49903 -0.90741 0
M  V30 29 H 1.36617 1.08474 0.960556 0
M  V30 30 H 1.8037 -0.322381 1.95556 0
M  V30 31 H 8.107 0.203932 -1.9549 0
M  V30 32 H 7.08796 -1.21487 -2.42945 0
M  V30 33 H 6.94299 2.34218 2.2012 0
M  V30 34 H 5.42089 1.91153 3.02605 0
M  V30 35 H -6.8172 -0.404773 0.200572 0
M  V30 36 H -6.66104 1.3608 0.521349 0
M  V30 37 H -5.55848 0.141166 1.33824 0
M  V30 END ATOM
M  V30 BEGIN BOND
M  V30 1 1 1 2
M  V30 2 1 2 3
M  V30 3 1 3 4
M  V30 4 2 4 5
M  V30 5 1 4 6
M  V30 6 1 6 7
M  V30 7 1 7 8
M  V30 8 2 8 9
M  V30 9 1 8 10
M  V30 10 1 10 11
M  V30 11 1 11 12
M  V30 12 2 12 13
M  V30 13 1 13 14
M  V30 14 1 14 15
M  V30 15 2 14 16
M  V30 16 1 16 17
M  V30 17 2 17 18
M  V30 18 1 17 19
M  V30 19 1 2 20
M  V30 20 1 18 12
M  V30 21 1 1 21
M  V30 22 1 1 22
M  V30 23 1 1 23
M  V30 24 1 2 24
M  V30 25 1 3 25
M  V30 26 1 6 26
M  V30 27 1 6 27
M  V30 28 1 7 28
M  V30 29 1 10 29
M  V30 30 1 10 30
M  V30 31 1 15 31
M  V30 32 1 15 32
M  V30 33 1 19 33
M  V30 34 1 19 34
M  V30 35 1 20 35
M  V30 36 1 20 36
M  V30 37 1 20 37
M  V30 END BOND
M  V30 END CTAB
M  END
