
     RDKit          3D

  0  0  0  0  0  0  0  0  0  0999 V3000
M  V30 BEGIN CTAB
M  V30 COUNTS 40 41 0 0 0
M  V30 BEGIN ATOM
M  V30 1 C 4.45257 -0.487717 -1.49422 0
M  V30 2 C 3.77769 -0.188277 -0.177351 0
M  V30 3 C 2.32192 -0.248993 -0.17327 0
M  V30 4 C 1.64904 0.198151 0.953985 0
M  V30 5 N 2.38273 0.580912 2.13159 0
M  V30 6 N 0.32606 0.266087 0.981059 0
M  V30 7 C -0.39823 -0.10415 -0.0954069 0
M  V30 8 N 0.211034 -0.554924 -1.21333 0
M  V30 9 C 1.56643 -0.62972 -1.26382 0
M  V30 10 O 2.16779 -1.04145 -2.27449 0
M  V30 11 C -1.8518 0.102469 -0.174568 0
M  V30 12 N -2.0026 0.905045 -1.4416 0
M  V30 13 C -2.38914 0.992704 0.914891 0
M  V30 14 C -3.82274 1.31146 0.603198 0
M  V30 15 C -4.61352 0.102629 0.199208 0
M  V30 16 C -3.99876 -0.684598 -0.918179 0
M  V30 17 C -2.60081 -1.14272 -0.394486 0
M  V30 18 C 4.51667 -0.826865 0.938245 0
M  V30 19 H 4.52148 -1.52207 -1.75941 0
M  V30 20 H 5.52362 -0.152014 -1.31389 0
M  V30 21 H 4.13437 0.212533 -2.30202 0
M  V30 22 H 3.99834 0.950198 -0.0422897 0
M  V30 23 H 2.25478 -0.0779949 2.93351 0
M  V30 24 H 2.97586 1.42697 2.17295 0
M  V30 25 H -0.233376 0.607143 1.80242 0
M  V30 26 H -1.22357 1.60123 -1.44087 0
M  V30 27 H -1.76853 0.200837 -2.18721 0
M  V30 28 H -2.2863 0.598767 1.90714 0
M  V30 29 H -1.82359 1.9502 0.847524 0
M  V30 30 H -3.94188 2.08203 -0.191819 0
M  V30 31 H -4.30259 1.72922 1.49899 0
M  V30 32 H -4.82474 -0.582108 1.04747 0
M  V30 33 H -5.6136 0.469676 -0.163223 0
M  V30 34 H -3.83785 -0.0862527 -1.83065 0
M  V30 35 H -4.58411 -1.57306 -1.13041 0
M  V30 36 H -2.77098 -1.76784 0.494162 0
M  V30 37 H -2.15413 -1.71628 -1.20226 0
M  V30 38 H 3.92328 -1.59309 1.445 0
M  V30 39 H 5.49421 -1.24738 0.572482 0
M  V30 40 H 4.84493 -0.0842482 1.74096 0
M  V30 END ATOM
M  V30 BEGIN BOND
M  V30 1 1 1 2
M  V30 2 1 2 3
M  V30 3 2 3 4
M  V30 4 1 4 5
M  V30 5 1 4 6
M  V30 6 1 6 7
M  V30 7 2 7 8
M  V30 8 1 8 9
M  V30 9 2 9 10
M  V30 10 1 7 11
M  V30 11 1 11 12
M  V30 12 1 11 13
M  V30 13 1 13 14
M  V30 14 1 14 15
M  V30 15 1 15 16
M  V30 16 1 16 17
M  V30 17 1 2 18
M  V30 18 1 9 3
M  V30 19 1 17 11
M  V30 20 1 1 19
M  V30 21 1 1 20
M  V30 22 1 1 21
M  V30 23 1 2 22
M  V30 24 1 5 23
M  V30 25 1 5 24
M  V30 26 1 6 25
M  V30 27 1 12 26
M  V30 28 1 12 27
M  V30 29 1 13 28
M  V30 30 1 13 29
M  V30 31 1 14 30
M  V30 32 1 14 31
M  V30 33 1 15 32
M  V30 34 1 15 33
M  V30 35 1 16 34
M  V30 36 1 16 35
M  V30 37 1 17 36
M  V30 38 1 17 37
M  V30 39 1 18 38
M  V30 40 1 18 39
M  V30 41 1 18 40
M  V30 END BOND
M  V30 END CTAB
M  END
