
     RDKit          3D

  0  0  0  0  0  0  0  0  0  0999 V3000
M  V30 BEGIN CTAB
M  V30 COUNTS 30 30 0 0 0
M  V30 BEGIN ATOM
M  V30 1 N -3.51455 1.21157 0.867746 0
M  V30 2 C -2.50393 0.223607 1.11406 0
M  V30 3 C -1.1807 0.573387 0.418887 0
M  V30 4 C -1.35739 0.668818 -1.04916 0
M  V30 5 C -1.00481 -0.53569 -1.85295 0
M  V30 6 C 0.0832173 -1.39832 -1.29084 0
M  V30 7 C 0.833975 -0.601505 -0.263414 0
M  V30 8 C -0.143958 -0.393594 0.882259 0
M  V30 9 N 2.08612 -1.10164 0.117174 0
M  V30 10 S 3.43926 -0.117208 -0.167566 0
M  V30 11 O 4.70432 -0.897721 -0.401449 0
M  V30 12 O 3.27231 0.81194 -1.32949 0
M  V30 13 N 3.67842 0.868752 1.2333 0
M  V30 14 H -4.43586 0.739944 0.691218 0
M  V30 15 H -3.64321 1.85095 1.66309 0
M  V30 16 H -2.84027 -0.733384 0.652485 0
M  V30 17 H -2.36779 0.0714689 2.18375 0
M  V30 18 H -0.902622 1.57363 0.821955 0
M  V30 19 H -2.42797 0.896435 -1.25054 0
M  V30 20 H -0.801347 1.56151 -1.43005 0
M  V30 21 H -1.87809 -1.20464 -2.0525 0
M  V30 22 H -0.672052 -0.18633 -2.85714 0
M  V30 23 H 0.717711 -1.78634 -2.0921 0
M  V30 24 H -0.383988 -2.2639 -0.738716 0
M  V30 25 H 0.984716 0.424635 -0.713402 0
M  V30 26 H -0.662482 -1.34536 1.14615 0
M  V30 27 H 0.392007 -0.0140974 1.76113 0
M  V30 28 H 2.08282 -1.36491 1.12783 0
M  V30 29 H 4.01342 1.83312 0.958374 0
M  V30 30 H 4.43274 0.487976 1.8499 0
M  V30 END ATOM
M  V30 BEGIN BOND
M  V30 1 1 1 2
M  V30 2 1 2 3
M  V30 3 1 3 4
M  V30 4 1 4 5
M  V30 5 1 5 6
M  V30 6 1 6 7
M  V30 7 1 7 8
M  V30 8 1 7 9
M  V30 9 1 9 10
M  V30 10 2 10 11
M  V30 11 2 10 12
M  V30 12 1 10 13
M  V30 13 1 8 3
M  V30 14 1 1 14
M  V30 15 1 1 15
M  V30 16 1 2 16
M  V30 17 1 2 17
M  V30 18 1 3 18
M  V30 19 1 4 19
M  V30 20 1 4 20
M  V30 21 1 5 21
M  V30 22 1 5 22
M  V30 23 1 6 23
M  V30 24 1 6 24
M  V30 25 1 7 25
M  V30 26 1 8 26
M  V30 27 1 8 27
M  V30 28 1 9 28
M  V30 29 1 13 29
M  V30 30 1 13 30
M  V30 END BOND
M  V30 END CTAB
M  END
