
     RDKit          3D

  0  0  0  0  0  0  0  0  0  0999 V3000
M  V30 BEGIN CTAB
M  V30 COUNTS 31 32 0 0 0
M  V30 BEGIN ATOM
M  V30 1 N -1.69538 2.59493 0.504647 0
M  V30 2 N -0.544335 1.93704 0.119404 0
M  V30 3 C -0.583074 0.499522 0.275196 0
M  V30 4 C 0.729665 0.000928277 -0.211759 0
M  V30 5 C 0.973285 -0.679458 -1.37958 0
M  V30 6 N 2.29376 -0.954503 -1.47945 0
M  V30 7 N 2.8963 -0.458372 -0.392144 0
M  V30 8 C 1.96495 0.129398 0.396213 0
M  V30 9 N 2.20347 0.763082 1.62799 0
M  V30 10 C 4.31879 -0.590926 -0.195585 0
M  V30 11 C -1.64307 -0.140674 -0.584023 0
M  V30 12 C -1.58488 -1.6563 -0.330837 0
M  V30 13 C -2.84696 -1.55289 0.468357 0
M  V30 14 C -3.0401 -0.141898 -0.0607928 0
M  V30 15 H -1.49538 3.60237 0.668908 0
M  V30 16 H -2.40418 2.58209 -0.288073 0
M  V30 17 H -0.352858 2.1305 -0.900585 0
M  V30 18 H -0.753948 0.255162 1.342 0
M  V30 19 H 0.219631 -0.948957 -2.11384 0
M  V30 20 H 3.12077 0.743234 2.09494 0
M  V30 21 H 1.4428 1.28193 2.11216 0
M  V30 22 H 4.68079 -0.128792 0.721839 0
M  V30 23 H 4.83553 -0.0789211 -1.03837 0
M  V30 24 H 4.64345 -1.6694 -0.234029 0
M  V30 25 H -1.51686 0.127625 -1.64117 0
M  V30 26 H -1.72508 -2.19979 -1.28701 0
M  V30 27 H -0.732814 -2.00503 0.253611 0
M  V30 28 H -2.71367 -1.59021 1.55739 0
M  V30 29 H -3.62223 -2.27396 0.166985 0
M  V30 30 H -3.29817 0.592046 0.728995 0
M  V30 31 H -3.77021 -0.169787 -0.901384 0
M  V30 END ATOM
M  V30 BEGIN BOND
M  V30 1 1 1 2
M  V30 2 1 2 3
M  V30 3 1 3 4
M  V30 4 1 4 5
M  V30 5 2 5 6
M  V30 6 1 6 7
M  V30 7 1 7 8
M  V30 8 1 8 9
M  V30 9 1 7 10
M  V30 10 1 3 11
M  V30 11 1 11 12
M  V30 12 1 12 13
M  V30 13 1 13 14
M  V30 14 2 8 4
M  V30 15 1 14 11
M  V30 16 1 1 15
M  V30 17 1 1 16
M  V30 18 1 2 17
M  V30 19 1 3 18
M  V30 20 1 5 19
M  V30 21 1 9 20
M  V30 22 1 9 21
M  V30 23 1 10 22
M  V30 24 1 10 23
M  V30 25 1 10 24
M  V30 26 1 11 25
M  V30 27 1 12 26
M  V30 28 1 12 27
M  V30 29 1 13 28
M  V30 30 1 13 29
M  V30 31 1 14 30
M  V30 32 1 14 31
M  V30 END BOND
M  V30 END CTAB
M  END
