
     RDKit          3D

  0  0  0  0  0  0  0  0  0  0999 V3000
M  V30 BEGIN CTAB
M  V30 COUNTS 44 46 0 0 0
M  V30 BEGIN ATOM
M  V30 1 N 6.55469 2.85506 0.457135 0
M  V30 2 C 5.69471 1.76199 0.183037 0
M  V30 3 C 6.00396 0.515324 0.699162 0
M  V30 4 C 5.20768 -0.5735 0.464631 0
M  V30 5 N 5.55976 -1.83217 1.0117 0
M  V30 6 N 4.1159 -0.369058 -0.289159 0
M  V30 7 C 3.78839 0.810055 -0.799808 0
M  V30 8 N 4.59881 1.88771 -0.553286 0
M  V30 9 S 2.36958 1.14414 -1.79747 0
M  V30 10 C 1.31261 -0.245716 -2.11174 0
M  V30 11 C 0.639708 -0.704627 -0.879054 0
M  V30 12 C 1.09873 -1.77737 -0.159444 0
M  V30 13 C 0.404422 -2.10983 0.996791 0
M  V30 14 C -0.699851 -1.42162 1.43706 0
M  V30 15 C -1.14542 -0.349398 0.701414 0
M  V30 16 C -0.48024 0.0017417 -0.442865 0
M  V30 17 S -2.56006 0.560523 1.23764 0
M  V30 18 O -2.5792 0.597197 2.72966 0
M  V30 19 O -2.36421 1.96597 0.724324 0
M  V30 20 N -3.95661 -0.167276 0.59081 0
M  V30 21 C -4.02302 -0.184728 -0.834587 0
M  V30 22 C -5.17047 0.63349 -1.37982 0
M  V30 23 O -6.39729 0.31748 -0.859711 0
M  V30 24 C -6.39775 -0.117249 0.440395 0
M  V30 25 C -5.17568 0.255606 1.21362 0
M  V30 26 H 7.51498 2.8594 0.0431322 0
M  V30 27 H 6.21907 3.62048 1.05591 0
M  V30 28 H 6.89369 0.408027 1.29847 0
M  V30 29 H 5.45077 -1.98558 2.055 0
M  V30 30 H 5.92357 -2.6181 0.428785 0
M  V30 31 H 0.543014 0.0711521 -2.85643 0
M  V30 32 H 1.92071 -1.05293 -2.57914 0
M  V30 33 H 1.96744 -2.38103 -0.466911 0
M  V30 34 H 0.743136 -2.96395 1.60129 0
M  V30 35 H -1.22614 -1.71673 2.36305 0
M  V30 36 H -0.796833 0.844929 -1.05382 0
M  V30 37 H -4.11773 -1.25708 -1.14753 0
M  V30 38 H -3.09994 0.250458 -1.25537 0
M  V30 39 H -5.14122 0.556651 -2.48568 0
M  V30 40 H -4.94445 1.70204 -1.14509 0
M  V30 41 H -7.27593 0.371644 0.956141 0
M  V30 42 H -6.56553 -1.21245 0.519693 0
M  V30 43 H -5.23855 -0.292908 2.19917 0
M  V30 44 H -5.1692 1.34225 1.50409 0
M  V30 END ATOM
M  V30 BEGIN BOND
M  V30 1 1 1 2
M  V30 2 2 2 3
M  V30 3 1 3 4
M  V30 4 1 4 5
M  V30 5 2 4 6
M  V30 6 1 6 7
M  V30 7 2 7 8
M  V30 8 1 7 9
M  V30 9 1 9 10
M  V30 10 1 10 11
M  V30 11 2 11 12
M  V30 12 1 12 13
M  V30 13 2 13 14
M  V30 14 1 14 15
M  V30 15 2 15 16
M  V30 16 1 15 17
M  V30 17 2 17 18
M  V30 18 2 17 19
M  V30 19 1 17 20
M  V30 20 1 20 21
M  V30 21 1 21 22
M  V30 22 1 22 23
M  V30 23 1 23 24
M  V30 24 1 24 25
M  V30 25 1 8 2
M  V30 26 1 16 11
M  V30 27 1 25 20
M  V30 28 1 1 26
M  V30 29 1 1 27
M  V30 30 1 3 28
M  V30 31 1 5 29
M  V30 32 1 5 30
M  V30 33 1 10 31
M  V30 34 1 10 32
M  V30 35 1 12 33
M  V30 36 1 13 34
M  V30 37 1 14 35
M  V30 38 1 16 36
M  V30 39 1 21 37
M  V30 40 1 21 38
M  V30 41 1 22 39
M  V30 42 1 22 40
M  V30 43 1 24 41
M  V30 44 1 24 42
M  V30 45 1 25 43
M  V30 46 1 25 44
M  V30 END BOND
M  V30 END CTAB
M  END
