
     RDKit          3D

  0  0  0  0  0  0  0  0  0  0999 V3000
M  V30 BEGIN CTAB
M  V30 COUNTS 39 39 0 0 0
M  V30 BEGIN ATOM
M  V30 1 C 4.18447 -1.67674 0.912918 0
M  V30 2 C 4.29043 -0.193804 1.19422 0
M  V30 3 C 3.95456 0.632484 -0.00831701 0
M  V30 4 C 2.55838 0.401751 -0.513555 0
M  V30 5 C 1.59303 0.748849 0.563713 0
M  V30 6 C 0.178904 0.562972 0.18573 0
M  V30 7 C -0.590532 1.55933 -0.396717 0
M  V30 8 C -1.91382 1.35881 -0.741379 0
M  V30 9 O -2.65793 2.37681 -1.32334 0
M  V30 10 S -3.56044 3.50674 -0.482001 0
M  V30 11 N -4.13848 2.91443 1.03602 0
M  V30 12 O -4.78823 3.83024 -1.32341 0
M  V30 13 O -2.83632 4.81914 -0.303656 0
M  V30 14 C -2.44155 0.109513 -0.477437 0
M  V30 15 C -1.72381 -0.90027 0.0934641 0
M  V30 16 O -2.22388 -2.16305 0.370675 0
M  V30 17 S -2.09938 -3.38554 -0.820747 0
M  V30 18 N -3.69227 -3.97635 -1.1133 0
M  V30 19 O -1.56857 -2.83702 -2.10262 0
M  V30 20 O -1.20164 -4.50123 -0.329878 0
M  V30 21 C -0.38749 -0.669288 0.431741 0
M  V30 22 H 5.1173 -2.22159 1.16948 0
M  V30 23 H 3.9762 -1.89029 -0.153887 0
M  V30 24 H 3.35503 -2.10636 1.51482 0
M  V30 25 H 3.74709 0.0641529 2.10274 0
M  V30 26 H 5.37959 0.00393581 1.41821 0
M  V30 27 H 4.73628 0.479193 -0.777135 0
M  V30 28 H 4.01074 1.70384 0.304078 0
M  V30 29 H 2.40857 1.09593 -1.37527 0
M  V30 30 H 2.49629 -0.658476 -0.832567 0
M  V30 31 H 1.81339 0.107455 1.45738 0
M  V30 32 H 1.79783 1.78671 0.893116 0
M  V30 33 H -0.134365 2.50839 -0.579963 0
M  V30 34 H -5.08272 3.31341 1.2348 0
M  V30 35 H -3.43875 3.20724 1.7609 0
M  V30 36 H -3.4692 -0.065266 -0.738559 0
M  V30 37 H -4.10783 -3.4141 -1.88318 0
M  V30 38 H -3.73913 -4.99279 -1.24612 0
M  V30 39 H 0.198266 -1.43916 0.879044 0
M  V30 END ATOM
M  V30 BEGIN BOND
M  V30 1 1 1 2
M  V30 2 1 2 3
M  V30 3 1 3 4
M  V30 4 1 4 5
M  V30 5 1 5 6
M  V30 6 2 6 7
M  V30 7 1 7 8
M  V30 8 1 8 9
M  V30 9 1 9 10
M  V30 10 1 10 11
M  V30 11 2 10 12
M  V30 12 2 10 13
M  V30 13 2 8 14
M  V30 14 1 14 15
M  V30 15 1 15 16
M  V30 16 1 16 17
M  V30 17 1 17 18
M  V30 18 2 17 19
M  V30 19 2 17 20
M  V30 20 2 15 21
M  V30 21 1 21 6
M  V30 22 1 1 22
M  V30 23 1 1 23
M  V30 24 1 1 24
M  V30 25 1 2 25
M  V30 26 1 2 26
M  V30 27 1 3 27
M  V30 28 1 3 28
M  V30 29 1 4 29
M  V30 30 1 4 30
M  V30 31 1 5 31
M  V30 32 1 5 32
M  V30 33 1 7 33
M  V30 34 1 11 34
M  V30 35 1 11 35
M  V30 36 1 14 36
M  V30 37 1 18 37
M  V30 38 1 18 38
M  V30 39 1 21 39
M  V30 END BOND
M  V30 END CTAB
M  END
