
     RDKit          3D

  0  0  0  0  0  0  0  0  0  0999 V3000
M  V30 BEGIN CTAB
M  V30 COUNTS 36 37 0 0 0
M  V30 BEGIN ATOM
M  V30 1 N -5.56636 -1.10263 -0.39733 0
M  V30 2 C -4.36773 -0.435435 0.0927068 0
M  V30 3 C -3.3013 -0.597061 -0.964967 0
M  V30 4 C -2.0261 0.0206851 -0.625687 0
M  V30 5 C -1.68325 1.35575 -0.64798 0
M  V30 6 C -2.54013 2.51843 -1.02933 0
M  V30 7 N -0.398427 1.42957 -0.25271 0
M  V30 8 N 0.0806616 0.233031 0.013578 0
M  V30 9 C -0.90075 -0.652445 -0.207869 0
M  V30 10 C -0.722929 -2.12579 -0.00903075 0
M  V30 11 C 1.38299 -0.0457558 0.448534 0
M  V30 12 O 1.7399 -1.25149 0.677569 0
M  V30 13 C 2.35051 1.05463 0.644465 0
M  V30 14 N 3.61639 0.510877 1.09325 0
M  V30 15 N 4.01613 0.301596 2.32728 0
M  V30 16 N 5.23188 -0.206682 2.36673 0
M  V30 17 C 5.6521 -0.338002 1.09562 0
M  V30 18 C 4.63035 0.115463 0.301864 0
M  V30 19 N 6.88177 -0.832977 0.584854 0
M  V30 20 H -6.44008 -0.606169 -0.0684773 0
M  V30 21 H -5.56397 -0.994165 -1.44866 0
M  V30 22 H -4.03228 -0.941465 0.996683 0
M  V30 23 H -4.64655 0.626242 0.248071 0
M  V30 24 H -3.17767 -1.70593 -1.10605 0
M  V30 25 H -3.62938 -0.212394 -1.96316 0
M  V30 26 H -1.95915 3.27456 -1.55861 0
M  V30 27 H -3.3579 2.19993 -1.72452 0
M  V30 28 H -2.93404 2.93376 -0.0804244 0
M  V30 29 H -1.60914 -2.70289 -0.264519 0
M  V30 30 H -0.474931 -2.34507 1.05339 0
M  V30 31 H 0.102901 -2.505 -0.67658 0
M  V30 32 H 2.46817 1.57898 -0.346787 0
M  V30 33 H 1.95529 1.74521 1.41648 0
M  V30 34 H 4.57764 0.175021 -0.788243 0
M  V30 35 H 7.65515 -0.215657 0.31918 0
M  V30 36 H 6.99022 -1.86649 0.480688 0
M  V30 END ATOM
M  V30 BEGIN BOND
M  V30 1 1 1 2
M  V30 2 1 2 3
M  V30 3 1 3 4
M  V30 4 1 4 5
M  V30 5 1 5 6
M  V30 6 2 5 7
M  V30 7 1 7 8
M  V30 8 1 8 9
M  V30 9 1 9 10
M  V30 10 1 8 11
M  V30 11 2 11 12
M  V30 12 1 11 13
M  V30 13 1 13 14
M  V30 14 1 14 15
M  V30 15 2 15 16
M  V30 16 1 16 17
M  V30 17 2 17 18
M  V30 18 1 17 19
M  V30 19 2 9 4
M  V30 20 1 18 14
M  V30 21 1 1 20
M  V30 22 1 1 21
M  V30 23 1 2 22
M  V30 24 1 2 23
M  V30 25 1 3 24
M  V30 26 1 3 25
M  V30 27 1 6 26
M  V30 28 1 6 27
M  V30 29 1 6 28
M  V30 30 1 10 29
M  V30 31 1 10 30
M  V30 32 1 10 31
M  V30 33 1 13 32
M  V30 34 1 13 33
M  V30 35 1 18 34
M  V30 36 1 19 35
M  V30 37 1 19 36
M  V30 END BOND
M  V30 END CTAB
M  END
