
     RDKit          3D

  0  0  0  0  0  0  0  0  0  0999 V3000
M  V30 BEGIN CTAB
M  V30 COUNTS 42 43 0 0 0
M  V30 BEGIN ATOM
M  V30 1 N 0.851256 -0.657448 -1.297 0
M  V30 2 C 0.619289 0.25459 -0.217275 0
M  V30 3 C -0.858652 0.179533 0.0559353 0
M  V30 4 C -1.69646 0.229064 -1.05758 0
M  V30 5 C -3.06835 0.162719 -0.911435 0
M  V30 6 C -3.64106 0.0464153 0.332138 0
M  V30 7 C -2.80008 -0.000833257 1.41868 0
M  V30 8 C -1.41809 0.0651291 1.28219 0
M  V30 9 C -5.11489 -0.0221434 0.446494 0
M  V30 10 C -5.69204 1.27814 -0.119253 0
M  V30 11 C -5.62259 -1.21819 -0.335537 0
M  V30 12 C 1.426 0.0938849 1.00594 0
M  V30 13 N 2.83403 0.201349 0.933818 0
M  V30 14 C 3.76711 -0.591633 0.246695 0
M  V30 15 O 3.39437 -1.56555 -0.427104 0
M  V30 16 C 5.24946 -0.338873 0.265725 0
M  V30 17 N 6.1082 -1.31289 -0.316198 0
M  V30 18 C 5.80968 0.390687 1.44357 0
M  V30 19 C 5.63185 1.10729 0.090952 0
M  V30 20 H 0.718391 -0.215041 -2.23413 0
M  V30 21 H 0.308476 -1.54128 -1.18199 0
M  V30 22 H 0.757561 1.32237 -0.583224 0
M  V30 23 H -1.2692 0.319744 -2.04146 0
M  V30 24 H -3.70814 0.202267 -1.78649 0
M  V30 25 H -3.20674 -0.0920698 2.42219 0
M  V30 26 H -0.772389 0.0217753 2.16868 0
M  V30 27 H -5.3681 -0.129724 1.51896 0
M  V30 28 H -4.9458 2.09706 -0.0910916 0
M  V30 29 H -6.56873 1.57836 0.492855 0
M  V30 30 H -5.98766 1.07482 -1.15819 0
M  V30 31 H -4.94354 -2.0813 -0.252197 0
M  V30 32 H -6.6667 -1.47171 -0.0279915 0
M  V30 33 H -5.62613 -0.929882 -1.41045 0
M  V30 34 H 1.0332 0.786217 1.82237 0
M  V30 35 H 1.17507 -0.922674 1.44472 0
M  V30 36 H 3.31111 1.0142 1.47947 0
M  V30 37 H 6.17183 -2.22397 0.122144 0
M  V30 38 H 6.3995 -1.18334 -1.27898 0
M  V30 39 H 6.86211 0.174518 1.73844 0
M  V30 40 H 5.14019 0.657229 2.26793 0
M  V30 41 H 4.82998 1.86698 0.0139959 0
M  V30 42 H 6.57665 1.37422 -0.428153 0
M  V30 END ATOM
M  V30 BEGIN BOND
M  V30 1 1 1 2
M  V30 2 1 2 3
M  V30 3 2 3 4
M  V30 4 1 4 5
M  V30 5 2 5 6
M  V30 6 1 6 7
M  V30 7 2 7 8
M  V30 8 1 6 9
M  V30 9 1 9 10
M  V30 10 1 9 11
M  V30 11 1 2 12
M  V30 12 1 12 13
M  V30 13 1 13 14
M  V30 14 2 14 15
M  V30 15 1 14 16
M  V30 16 1 16 17
M  V30 17 1 16 18
M  V30 18 1 18 19
M  V30 19 1 8 3
M  V30 20 1 19 16
M  V30 21 1 1 20
M  V30 22 1 1 21
M  V30 23 1 2 22
M  V30 24 1 4 23
M  V30 25 1 5 24
M  V30 26 1 7 25
M  V30 27 1 8 26
M  V30 28 1 9 27
M  V30 29 1 10 28
M  V30 30 1 10 29
M  V30 31 1 10 30
M  V30 32 1 11 31
M  V30 33 1 11 32
M  V30 34 1 11 33
M  V30 35 1 12 34
M  V30 36 1 12 35
M  V30 37 1 13 36
M  V30 38 1 17 37
M  V30 39 1 17 38
M  V30 40 1 18 39
M  V30 41 1 18 40
M  V30 42 1 19 41
M  V30 43 1 19 42
M  V30 END BOND
M  V30 END CTAB
M  END
