
     RDKit          3D

  0  0  0  0  0  0  0  0  0  0999 V3000
M  V30 BEGIN CTAB
M  V30 COUNTS 28 28 0 0 0
M  V30 BEGIN ATOM
M  V30 1 N 3.87262 0.721126 0.0268702 0
M  V30 2 N 2.61771 0.436534 0.573163 0
M  V30 3 C 1.97962 -0.659666 0.377636 0
M  V30 4 N 0.70002 -0.924989 0.947047 0
M  V30 5 C -0.522617 -0.371628 0.416658 0 CFG=2
M  V30 6 C -0.732364 -0.815689 -1.03495 0
M  V30 7 C -2.21854 -0.637135 -1.29657 0
M  V30 8 C -2.80106 0.44637 -0.437148 0
M  V30 9 C -1.83844 1.58291 -0.190215 0
M  V30 10 C -0.545761 1.12432 0.421949 0 CFG=1
M  V30 11 O -0.312196 1.66659 1.67601 0
M  V30 12 N 2.57192 -1.65858 -0.443897 0
M  V30 13 H 4.72952 0.683598 0.64066 0
M  V30 14 H 3.97529 0.966632 -0.963609 0
M  V30 15 H 0.700537 -1.55632 1.78766 0
M  V30 16 H -1.36116 -0.729109 1.03274 0
M  V30 17 H -0.406913 -1.86701 -1.14951 0
M  V30 18 H -0.155975 -0.131898 -1.69561 0
M  V30 19 H -2.36664 -0.432655 -2.37681 0
M  V30 20 H -2.71175 -1.61529 -1.0841 0
M  V30 21 H -3.65886 0.890916 -1.01573 0
M  V30 22 H -3.17442 0.0814694 0.528975 0
M  V30 23 H -1.67715 2.17639 -1.13211 0
M  V30 24 H -2.33311 2.27993 0.520161 0
M  V30 25 H 0.282124 1.47827 -0.243088 0
M  V30 26 H -0.204728 0.907152 2.32732 0
M  V30 27 H 3.60677 -1.67322 -0.575474 0
M  V30 28 H 1.98555 -2.36903 -0.910803 0
M  V30 END ATOM
M  V30 BEGIN BOND
M  V30 1 1 1 2
M  V30 2 2 2 3
M  V30 3 1 3 4
M  V30 4 1 4 5
M  V30 5 1 5 6
M  V30 6 1 6 7
M  V30 7 1 7 8
M  V30 8 1 8 9
M  V30 9 1 9 10
M  V30 10 1 10 11
M  V30 11 1 3 12
M  V30 12 1 10 5
M  V30 13 1 1 13
M  V30 14 1 1 14
M  V30 15 1 4 15
M  V30 16 1 5 16 CFG=1
M  V30 17 1 6 17
M  V30 18 1 6 18
M  V30 19 1 7 19
M  V30 20 1 7 20
M  V30 21 1 8 21
M  V30 22 1 8 22
M  V30 23 1 9 23
M  V30 24 1 9 24
M  V30 25 1 10 25 CFG=3
M  V30 26 1 11 26
M  V30 27 1 12 27
M  V30 28 1 12 28
M  V30 END BOND
M  V30 END CTAB
M  END
