
     RDKit          3D

  0  0  0  0  0  0  0  0  0  0999 V3000
M  V30 BEGIN CTAB
M  V30 COUNTS 23 24 0 0 0
M  V30 BEGIN ATOM
M  V30 1 N -4.75626 0.13482 -0.128718 0
M  V30 2 C -3.33746 0.124989 -0.104883 0
M  V30 3 N -2.61429 -0.973287 0.0986665 0
M  V30 4 C -1.27142 -0.946946 0.114997 0
M  V30 5 N -0.520025 -2.14621 0.341514 0
M  V30 6 C -0.59561 0.245138 -0.0833336 0
M  V30 7 N -1.3594 1.33257 -0.285527 0
M  V30 8 N -2.67363 1.30338 -0.300825 0
M  V30 9 C 0.856836 0.358711 -0.076126 0
M  V30 10 C 1.43387 1.39256 0.648589 0
M  V30 11 C 2.80246 1.56533 0.697788 0
M  V30 12 C 3.63388 0.693694 0.0122916 0
M  V30 13 Cl 5.36674 0.905186 0.0693685 0
M  V30 14 C 3.03004 -0.319046 -0.695535 0
M  V30 15 Cl 4.06058 -1.44125 -1.57584 0
M  V30 16 C 1.66741 -0.517489 -0.763969 0
M  V30 17 H -5.26921 -0.304765 0.648568 0
M  V30 18 H -5.27389 0.571207 -0.904999 0
M  V30 19 H 0.0118282 -2.21584 1.23043 0
M  V30 20 H -0.555142 -2.87207 -0.400164 0
M  V30 21 H 0.835809 2.10455 1.20394 0
M  V30 22 H 3.28611 2.35292 1.24738 0
M  V30 23 H 1.24079 -1.34815 -1.35222 0
M  V30 END ATOM
M  V30 BEGIN BOND
M  V30 1 1 1 2
M  V30 2 2 2 3
M  V30 3 1 3 4
M  V30 4 1 4 5
M  V30 5 2 4 6
M  V30 6 1 6 7
M  V30 7 2 7 8
M  V30 8 1 6 9
M  V30 9 2 9 10
M  V30 10 1 10 11
M  V30 11 2 11 12
M  V30 12 1 12 13
M  V30 13 1 12 14
M  V30 14 1 14 15
M  V30 15 2 14 16
M  V30 16 1 8 2
M  V30 17 1 16 9
M  V30 18 1 1 17
M  V30 19 1 1 18
M  V30 20 1 5 19
M  V30 21 1 5 20
M  V30 22 1 10 21
M  V30 23 1 11 22
M  V30 24 1 16 23
M  V30 END BOND
M  V30 END CTAB
M  END
