
     RDKit          3D

  0  0  0  0  0  0  0  0  0  0999 V3000
M  V30 BEGIN CTAB
M  V30 COUNTS 26 26 0 0 0
M  V30 BEGIN ATOM
M  V30 1 N 3.7466 -0.125792 -0.865218 0
M  V30 2 S 2.48211 -0.968162 -0.036492 0
M  V30 3 O 2.37911 -2.39219 -0.447145 0
M  V30 4 O 2.75762 -0.904424 1.44609 0
M  V30 5 N 1.00943 -0.133714 -0.372346 0
M  V30 6 C 1.1167 1.2108 0.139835 0
M  V30 7 C -0.107393 1.98004 -0.27573 0
M  V30 8 N -1.31211 1.18375 -0.260939 0
M  V30 9 C -1.1782 0.0946951 0.67528 0 CFG=2
M  V30 10 C -0.106335 -0.840317 0.181253 0
M  V30 11 S -2.70508 -0.816166 0.765865 0
M  V30 12 O -3.79478 0.105993 1.19193 0
M  V30 13 O -2.58812 -1.94587 1.72876 0
M  V30 14 N -3.10381 -1.43972 -0.784543 0
M  V30 15 H 4.6093 -0.68012 -0.943907 0
M  V30 16 H 3.90714 0.756404 -0.366121 0
M  V30 17 H 2.03103 1.67578 -0.297545 0
M  V30 18 H 1.18669 1.19605 1.25019 0
M  V30 19 H -0.207269 2.89191 0.346109 0
M  V30 20 H 0.0468475 2.30878 -1.32588 0
M  V30 21 H -2.10388 1.82546 0.00706544 0
M  V30 22 H -0.908359 0.501092 1.66099 0
M  V30 23 H -0.5648 -1.51671 -0.569827 0
M  V30 24 H 0.28113 -1.41796 1.06557 0
M  V30 25 H -4.10104 -1.70691 -0.832831 0
M  V30 26 H -2.77252 -0.842717 -1.56531 0
M  V30 END ATOM
M  V30 BEGIN BOND
M  V30 1 1 1 2
M  V30 2 2 2 3
M  V30 3 2 2 4
M  V30 4 1 2 5
M  V30 5 1 5 6
M  V30 6 1 6 7
M  V30 7 1 7 8
M  V30 8 1 8 9
M  V30 9 1 9 10
M  V30 10 1 9 11
M  V30 11 2 11 12
M  V30 12 2 11 13
M  V30 13 1 11 14
M  V30 14 1 10 5
M  V30 15 1 1 15
M  V30 16 1 1 16
M  V30 17 1 6 17
M  V30 18 1 6 18
M  V30 19 1 7 19
M  V30 20 1 7 20
M  V30 21 1 8 21
M  V30 22 1 9 22 CFG=1
M  V30 23 1 10 23
M  V30 24 1 10 24
M  V30 25 1 14 25
M  V30 26 1 14 26
M  V30 END BOND
M  V30 END CTAB
M  END
