
     RDKit          3D

  0  0  0  0  0  0  0  0  0  0999 V3000
M  V30 BEGIN CTAB
M  V30 COUNTS 24 23 0 0 0
M  V30 BEGIN ATOM
M  V30 1 N 3.09906 -0.526736 -0.476619 0
M  V30 2 C 2.4829 -0.0294209 0.720678 0
M  V30 3 C 1.18543 0.572744 0.499113 0
M  V30 4 C -0.0127486 -0.151783 0.0155244 0
M  V30 5 C -0.00106862 -0.824046 -1.28634 0
M  V30 6 F 0.901159 -1.84167 -1.46251 0
M  V30 7 F -1.23337 -1.45693 -1.53798 0
M  V30 8 F 0.282318 0.0497515 -2.34861 0
M  V30 9 C -1.13478 0.83261 0.212674 0
M  V30 10 C -2.49859 0.509622 -0.115268 0
M  V30 11 N -3.03206 -0.630962 0.655159 0
M  V30 12 H 3.69493 -1.35785 -0.345476 0
M  V30 13 H 3.62436 0.190694 -0.988918 0
M  V30 14 H 2.52315 -0.798792 1.53332 0
M  V30 15 H 3.22998 0.744165 1.10912 0
M  V30 16 H 0.859389 1.02265 1.5125 0
M  V30 17 H 1.25503 1.54492 -0.119734 0
M  V30 18 H -0.216968 -0.968016 0.792031 0
M  V30 19 H -0.832846 1.78238 -0.319649 0
M  V30 20 H -1.08801 1.13135 1.30368 0
M  V30 21 H -3.17644 1.36198 0.234593 0
M  V30 22 H -2.81356 0.355527 -1.14603 0
M  V30 23 H -3.70104 -1.18463 0.102241 0
M  V30 24 H -3.39623 -0.327545 1.57915 0
M  V30 END ATOM
M  V30 BEGIN BOND
M  V30 1 1 1 2
M  V30 2 1 2 3
M  V30 3 1 3 4
M  V30 4 1 4 5
M  V30 5 1 5 6
M  V30 6 1 5 7
M  V30 7 1 5 8
M  V30 8 1 4 9
M  V30 9 1 9 10
M  V30 10 1 10 11
M  V30 11 1 1 12
M  V30 12 1 1 13
M  V30 13 1 2 14
M  V30 14 1 2 15
M  V30 15 1 3 16
M  V30 16 1 3 17
M  V30 17 1 4 18
M  V30 18 1 9 19
M  V30 19 1 9 20
M  V30 20 1 10 21
M  V30 21 1 10 22
M  V30 22 1 11 23
M  V30 23 1 11 24
M  V30 END BOND
M  V30 END CTAB
M  END
