
     RDKit          3D

  0  0  0  0  0  0  0  0  0  0999 V3000
M  V30 BEGIN CTAB
M  V30 COUNTS 28 28 0 0 0
M  V30 BEGIN ATOM
M  V30 1 C 4.62667 -0.919144 -0.0964392 0
M  V30 2 O 3.58752 -0.258849 -0.814611 0
M  V30 3 C 2.304 -0.139727 -0.307083 0
M  V30 4 O 2.08394 -0.639961 0.822351 0
M  V30 5 C 1.26722 0.553626 -1.09326 0
M  V30 6 C -0.0385381 0.601507 -0.435655 0
M  V30 7 C -0.535859 1.75656 0.179118 0
M  V30 8 C -1.76836 1.78886 0.793856 0
M  V30 9 N -2.20702 3.0114 1.40227 0
M  V30 10 C -2.54549 0.647234 0.808173 0
M  V30 11 C -2.05293 -0.485068 0.202996 0
M  V30 12 C -0.821337 -0.53869 -0.418123 0
M  V30 13 N -0.405889 -1.76729 -1.01457 0
M  V30 14 C -2.89125 -1.70444 0.222696 0
M  V30 15 H 4.7272 -0.484546 0.918808 0
M  V30 16 H 5.56079 -0.728184 -0.6944 0
M  V30 17 H 4.42955 -1.99221 0.0253744 0
M  V30 18 H 1.61098 1.57972 -1.41923 0
M  V30 19 H 1.13206 0.000260066 -2.05743 0
M  V30 20 H 0.053904 2.64774 0.176261 0
M  V30 21 H -2.56838 3.81699 0.83025 0
M  V30 22 H -2.18047 3.13811 2.43978 0
M  V30 23 H -3.50526 0.701149 1.29574 0
M  V30 24 H -0.308112 -2.64725 -0.452845 0
M  V30 25 H -0.177346 -1.8636 -2.03073 0
M  V30 26 H -2.65829 -2.26929 1.14034 0
M  V30 27 H -3.9905 -1.4588 0.248169 0
M  V30 28 H -2.72879 -2.3461 -0.671817 0
M  V30 END ATOM
M  V30 BEGIN BOND
M  V30 1 1 1 2
M  V30 2 1 2 3
M  V30 3 2 3 4
M  V30 4 1 3 5
M  V30 5 1 5 6
M  V30 6 2 6 7
M  V30 7 1 7 8
M  V30 8 1 8 9
M  V30 9 2 8 10
M  V30 10 1 10 11
M  V30 11 2 11 12
M  V30 12 1 12 13
M  V30 13 1 11 14
M  V30 14 1 12 6
M  V30 15 1 1 15
M  V30 16 1 1 16
M  V30 17 1 1 17
M  V30 18 1 5 18
M  V30 19 1 5 19
M  V30 20 1 7 20
M  V30 21 1 9 21
M  V30 22 1 9 22
M  V30 23 1 10 23
M  V30 24 1 13 24
M  V30 25 1 13 25
M  V30 26 1 14 26
M  V30 27 1 14 27
M  V30 28 1 14 28
M  V30 END BOND
M  V30 END CTAB
M  END
