
     RDKit          3D

  0  0  0  0  0  0  0  0  0  0999 V3000
M  V30 BEGIN CTAB
M  V30 COUNTS 44 44 0 0 0
M  V30 BEGIN ATOM
M  V30 1 C -2.21475 -1.18442 -2.38664 0
M  V30 2 C -3.33487 -1.07504 -1.44025 0
M  V30 3 C -3.35619 -0.0474275 -0.38883 0
M  V30 4 C -2.25165 -0.0838194 0.60773 0
M  V30 5 N -0.954999 0.147322 0.0574441 0
M  V30 6 C 0.228701 0.0935104 0.872473 0
M  V30 7 O 0.057004 -0.167982 2.09543 0
M  V30 8 C 1.58377 0.331283 0.317543 0
M  V30 9 C 2.63114 0.231587 1.40264 0
M  V30 10 C 3.99875 0.459286 0.872922 0
M  V30 11 C 4.65851 1.65905 1.04161 0
M  V30 12 C 5.92559 1.90285 0.554112 0
M  V30 13 C 6.59176 0.921175 -0.139142 0
M  V30 14 C 5.95101 -0.282236 -0.317784 0
M  V30 15 C 4.67886 -0.52828 0.171037 0
M  V30 16 N 4.04582 -1.78762 -0.0285726 0
M  V30 17 C -4.68416 -0.165634 0.375052 0
M  V30 18 C -5.84363 0.0360144 -0.539278 0
M  V30 19 N -3.38528 1.31207 -0.941663 0
M  V30 20 H -1.92049 -0.276635 -2.90916 0
M  V30 21 H -1.31022 -1.66882 -1.94163 0
M  V30 22 H -2.51497 -1.89264 -3.23852 0
M  V30 23 H -3.49846 -2.10051 -0.955562 0
M  V30 24 H -4.29808 -0.964424 -2.04492 0
M  V30 25 H -2.4631 0.77174 1.32511 0
M  V30 26 H -2.28237 -1.01248 1.24254 0
M  V30 27 H -0.8615 0.395079 -0.948355 0
M  V30 28 H 1.56679 1.37536 -0.0663717 0
M  V30 29 H 1.78071 -0.427606 -0.444911 0
M  V30 30 H 2.40971 1.07835 2.11555 0
M  V30 31 H 2.53909 -0.702013 1.98047 0
M  V30 32 H 4.1271 2.4409 1.59285 0
M  V30 33 H 6.41358 2.86095 0.70543 0
M  V30 34 H 7.58946 1.09785 -0.529138 0
M  V30 35 H 6.46387 -1.05809 -0.858963 0
M  V30 36 H 3.22971 -2.04658 0.566814 0
M  V30 37 H 4.34566 -2.48665 -0.743151 0
M  V30 38 H -4.70253 -1.22385 0.746824 0
M  V30 39 H -4.7117 0.550125 1.19837 0
M  V30 40 H -6.76939 0.334248 -0.00271288 0
M  V30 41 H -6.08271 -0.916164 -1.07238 0
M  V30 42 H -5.66679 0.816408 -1.29382 0
M  V30 43 H -3.80957 1.37603 -1.86872 0
M  V30 44 H -3.8992 1.90775 -0.267568 0
M  V30 END ATOM
M  V30 BEGIN BOND
M  V30 1 1 1 2
M  V30 2 1 2 3
M  V30 3 1 3 4
M  V30 4 1 4 5
M  V30 5 1 5 6
M  V30 6 2 6 7
M  V30 7 1 6 8
M  V30 8 1 8 9
M  V30 9 1 9 10
M  V30 10 2 10 11
M  V30 11 1 11 12
M  V30 12 2 12 13
M  V30 13 1 13 14
M  V30 14 2 14 15
M  V30 15 1 15 16
M  V30 16 1 3 17
M  V30 17 1 17 18
M  V30 18 1 3 19
M  V30 19 1 15 10
M  V30 20 1 1 20
M  V30 21 1 1 21
M  V30 22 1 1 22
M  V30 23 1 2 23
M  V30 24 1 2 24
M  V30 25 1 4 25
M  V30 26 1 4 26
M  V30 27 1 5 27
M  V30 28 1 8 28
M  V30 29 1 8 29
M  V30 30 1 9 30
M  V30 31 1 9 31
M  V30 32 1 11 32
M  V30 33 1 12 33
M  V30 34 1 13 34
M  V30 35 1 14 35
M  V30 36 1 16 36
M  V30 37 1 16 37
M  V30 38 1 17 38
M  V30 39 1 17 39
M  V30 40 1 18 40
M  V30 41 1 18 41
M  V30 42 1 18 42
M  V30 43 1 19 43
M  V30 44 1 19 44
M  V30 END BOND
M  V30 END CTAB
M  END
