
     RDKit          3D

  0  0  0  0  0  0  0  0  0  0999 V3000
M  V30 BEGIN CTAB
M  V30 COUNTS 31 32 0 0 0
M  V30 BEGIN ATOM
M  V30 1 N 5.51652 0.268677 -0.613101 0
M  V30 2 N 4.20728 0.781037 -0.65269 0
M  V30 3 C 3.11052 -0.0691695 -0.37011 0
M  V30 4 O 3.37767 -1.27945 -0.0891541 0
M  V30 5 C 1.74245 0.421232 -0.400371 0
M  V30 6 C 1.44908 1.71665 -0.700558 0
M  V30 7 N 0.163905 2.08138 -0.705301 0
M  V30 8 C -0.817325 1.20614 -0.424172 0
M  V30 9 C -0.575786 -0.124213 -0.111847 0
M  V30 10 C 0.739013 -0.500149 -0.106449 0
M  V30 11 N 1.08614 -1.83443 0.195866 0
M  V30 12 C -1.58213 -1.03924 0.180922 0
M  V30 13 C -1.32304 -2.45744 0.517533 0
M  V30 14 C -2.87542 -0.529317 0.140728 0
M  V30 15 C -3.18508 0.776369 -0.161146 0
M  V30 16 C -2.14676 1.6336 -0.441585 0
M  V30 17 C -4.57398 1.30492 -0.199672 0
M  V30 18 H 6.13764 0.670057 -1.32125 0
M  V30 19 H 5.88658 0.200531 0.34114 0
M  V30 20 H 4.11501 1.80492 -0.899251 0
M  V30 21 H 2.24316 2.4567 -0.935849 0
M  V30 22 H 1.16303 -2.47841 -0.644798 0
M  V30 23 H 1.28617 -2.24606 1.10655 0
M  V30 24 H -2.384 -2.87796 0.692502 0
M  V30 25 H -1.02747 -3.11154 -0.295763 0
M  V30 26 H -0.926733 -2.6468 1.52516 0
M  V30 27 H -3.68316 -1.20164 0.360243 0
M  V30 28 H -2.34468 2.67188 -0.684767 0
M  V30 29 H -5.30944 0.538749 -0.517474 0
M  V30 30 H -4.59933 2.20254 -0.847891 0
M  V30 31 H -4.86982 1.66044 0.821456 0
M  V30 END ATOM
M  V30 BEGIN BOND
M  V30 1 1 1 2
M  V30 2 1 2 3
M  V30 3 2 3 4
M  V30 4 1 3 5
M  V30 5 2 5 6
M  V30 6 1 6 7
M  V30 7 2 7 8
M  V30 8 1 8 9
M  V30 9 2 9 10
M  V30 10 1 10 11
M  V30 11 1 9 12
M  V30 12 1 12 13
M  V30 13 2 12 14
M  V30 14 1 14 15
M  V30 15 2 15 16
M  V30 16 1 15 17
M  V30 17 1 10 5
M  V30 18 1 16 8
M  V30 19 1 1 18
M  V30 20 1 1 19
M  V30 21 1 2 20
M  V30 22 1 6 21
M  V30 23 1 11 22
M  V30 24 1 11 23
M  V30 25 1 13 24
M  V30 26 1 13 25
M  V30 27 1 13 26
M  V30 28 1 14 27
M  V30 29 1 16 28
M  V30 30 1 17 29
M  V30 31 1 17 30
M  V30 32 1 17 31
M  V30 END BOND
M  V30 END CTAB
M  END
