
     RDKit          3D

  0  0  0  0  0  0  0  0  0  0999 V3000
M  V30 BEGIN CTAB
M  V30 COUNTS 55 58 0 0 0
M  V30 BEGIN ATOM
M  V30 1 C -6.5038 2.20533 -1.2213 0
M  V30 2 C -5.46016 2.57867 -0.165816 0
M  V30 3 O -4.42515 1.62102 -0.146543 0
M  V30 4 C -3.12807 2.05391 -0.352715 0
M  V30 5 O -2.92541 3.27362 -0.547439 0
M  V30 6 C -2.00429 1.13294 -0.348517 0
M  V30 7 C -0.687811 1.43355 -0.538184 0
M  V30 8 N -0.190617 2.7428 -0.77854 0
M  V30 9 N 0.0236477 0.312821 -0.459619 0
M  V30 10 C -0.828891 -0.714417 -0.219316 0
M  V30 11 C -2.11965 -0.240841 -0.141771 0
M  V30 12 N -3.17789 -1.04033 0.0893795 0
M  V30 13 C -3.00909 -2.37167 0.258335 0
M  V30 14 C -4.11547 -3.19284 0.497926 0
M  V30 15 C -3.90011 -4.54009 0.663915 0
M  V30 16 C -2.60761 -5.0364 0.589385 0
M  V30 17 C -1.52832 -4.22457 0.354143 0
M  V30 18 C -1.72636 -2.86258 0.184135 0
M  V30 19 N -0.661411 -2.04094 -0.0508904 0
M  V30 20 C 1.4555 0.156568 -0.597757 0
M  V30 21 C 2.13428 0.293987 0.729934 0
M  V30 22 C 3.58062 0.153728 0.706962 0
M  V30 23 C 4.35769 1.28738 0.510999 0
M  V30 24 C 5.73592 1.23751 0.476381 0
M  V30 25 C 6.39888 0.0294655 0.639551 0
M  V30 26 C 5.65008 -1.11165 0.83578 0
M  V30 27 C 4.27323 -1.02434 0.864676 0
M  V30 28 S 8.14864 -0.0272617 0.59457 0
M  V30 29 O 8.67149 -1.08741 1.52479 0
M  V30 30 O 8.66913 1.30354 1.04694 0
M  V30 31 N 8.70054 -0.288875 -1.01462 0
M  V30 32 C -6.12194 2.61894 1.21756 0
M  V30 33 H -6.66988 1.10898 -1.20473 0
M  V30 34 H -6.20217 2.55892 -2.21891 0
M  V30 35 H -7.45906 2.69393 -0.934257 0
M  V30 36 H -5.07095 3.57738 -0.350226 0
M  V30 37 H -0.364167 3.25139 -1.65752 0
M  V30 38 H 0.369187 3.19579 -0.0309161 0
M  V30 39 H -5.0928 -2.74782 0.544441 0
M  V30 40 H -4.74068 -5.2016 0.851252 0
M  V30 41 H -2.4355 -6.10646 0.721099 0
M  V30 42 H -0.504334 -4.5788 0.289601 0
M  V30 43 H 1.80774 0.968793 -1.29098 0
M  V30 44 H 1.63214 -0.790185 -1.11036 0
M  V30 45 H 1.89913 1.30274 1.12614 0
M  V30 46 H 1.72435 -0.511832 1.39546 0
M  V30 47 H 3.90856 2.26198 0.376727 0
M  V30 48 H 6.35741 2.10988 0.324864 0
M  V30 49 H 6.19524 -2.03903 0.95993 0
M  V30 50 H 3.71868 -1.92161 1.01793 0
M  V30 51 H 9.16051 -1.23628 -1.06579 0
M  V30 52 H 7.87059 -0.344259 -1.64262 0
M  V30 53 H -6.24432 3.6444 1.58128 0
M  V30 54 H -7.07184 2.08201 1.13446 0
M  V30 55 H -5.46541 2.09014 1.9358 0
M  V30 END ATOM
M  V30 BEGIN BOND
M  V30 1 1 1 2
M  V30 2 1 2 3
M  V30 3 1 3 4
M  V30 4 2 4 5
M  V30 5 1 4 6
M  V30 6 2 6 7
M  V30 7 1 7 8
M  V30 8 1 7 9
M  V30 9 1 9 10
M  V30 10 2 10 11
M  V30 11 1 11 12
M  V30 12 2 12 13
M  V30 13 1 13 14
M  V30 14 2 14 15
M  V30 15 1 15 16
M  V30 16 2 16 17
M  V30 17 1 17 18
M  V30 18 2 18 19
M  V30 19 1 9 20
M  V30 20 1 20 21
M  V30 21 1 21 22
M  V30 22 2 22 23
M  V30 23 1 23 24
M  V30 24 2 24 25
M  V30 25 1 25 26
M  V30 26 2 26 27
M  V30 27 1 25 28
M  V30 28 2 28 29
M  V30 29 2 28 30
M  V30 30 1 28 31
M  V30 31 1 2 32
M  V30 32 1 11 6
M  V30 33 1 18 13
M  V30 34 1 27 22
M  V30 35 1 19 10
M  V30 36 1 1 33
M  V30 37 1 1 34
M  V30 38 1 1 35
M  V30 39 1 2 36
M  V30 40 1 8 37
M  V30 41 1 8 38
M  V30 42 1 14 39
M  V30 43 1 15 40
M  V30 44 1 16 41
M  V30 45 1 17 42
M  V30 46 1 20 43
M  V30 47 1 20 44
M  V30 48 1 21 45
M  V30 49 1 21 46
M  V30 50 1 23 47
M  V30 51 1 24 48
M  V30 52 1 26 49
M  V30 53 1 27 50
M  V30 54 1 31 51
M  V30 55 1 31 52
M  V30 56 1 32 53
M  V30 57 1 32 54
M  V30 58 1 32 55
M  V30 END BOND
M  V30 END CTAB
M  END
