
     RDKit          3D

  0  0  0  0  0  0  0  0  0  0999 V3000
M  V30 BEGIN CTAB
M  V30 COUNTS 58 61 0 0 0
M  V30 BEGIN ATOM
M  V30 1 N 5.79514 1.76289 2.00127 0
M  V30 2 C 5.73366 1.26213 0.667194 0
M  V30 3 N 5.11975 0.0846053 0.399173 0
M  V30 4 C 5.01419 -0.42115 -0.831934 0
M  V30 5 C 4.34106 -1.70754 -1.12523 0
M  V30 6 S 3.44694 -2.32478 0.338364 0
M  V30 7 C 2.15148 -1.16453 0.767783 0
M  V30 8 N 2.28036 -0.13942 1.59942 0
M  V30 9 N 1.15053 0.464527 1.6242 0
M  V30 10 C 0.227479 -0.154828 0.794856 0
M  V30 11 N 0.871162 -1.17404 0.272412 0
M  V30 12 C 0.451793 -2.21784 -0.549916 0
M  V30 13 C 0.41088 -2.19769 -1.89582 0
M  V30 14 C 0.0210544 -3.29741 -2.62343 0
M  V30 15 C -0.341022 -4.46006 -1.97705 0
M  V30 16 C -0.302603 -4.49262 -0.577349 0
M  V30 17 C 0.0895079 -3.38786 0.135323 0
M  V30 18 C 0.135026 -3.47931 1.6198 0
M  V30 19 C -1.139 0.349206 0.653218 0
M  V30 20 C -1.98708 0.0604137 -0.370473 0
M  V30 21 C -3.2672 0.639842 -0.420271 0
M  V30 22 C -3.67021 1.51067 0.582738 0
M  V30 23 C -2.83625 1.81007 1.62745 0
M  V30 24 C -1.58142 1.22276 1.63979 0
M  V30 25 C -4.99543 2.17645 0.425791 0
M  V30 26 C -5.37267 2.97239 1.60976 0
M  V30 27 C -4.77335 3.21186 -0.719622 0
M  V30 28 C -6.10508 1.28082 -0.00432905 0
M  V30 29 N 5.54186 0.287399 -1.82863 0
M  V30 30 C 6.16526 1.468 -1.61482 0
M  V30 31 N 6.25595 1.95043 -0.355858 0
M  V30 32 N 6.75045 2.23682 -2.65509 0
M  V30 33 H 4.90025 1.96751 2.47904 0
M  V30 34 H 6.68451 1.91824 2.47689 0
M  V30 35 H 3.54771 -1.48215 -1.88562 0
M  V30 36 H 5.06983 -2.42184 -1.53647 0
M  V30 37 H 0.690343 -1.29498 -2.48019 0
M  V30 38 H -0.00808342 -3.27724 -3.68754 0
M  V30 39 H -0.661979 -5.36271 -2.52974 0
M  V30 40 H -0.591419 -5.41381 -0.0956257 0
M  V30 41 H 1.1223 -3.98206 1.87982 0
M  V30 42 H -0.627888 -4.17579 1.95184 0
M  V30 43 H 0.107766 -2.4937 2.0832 0
M  V30 44 H -1.74223 -0.607505 -1.17495 0
M  V30 45 H -3.87141 0.368725 -1.2723 0
M  V30 46 H -3.16231 2.4832 2.40237 0
M  V30 47 H -0.962824 1.49059 2.48344 0
M  V30 48 H -5.36015 2.43977 2.56428 0
M  V30 49 H -4.78353 3.93189 1.6423 0
M  V30 50 H -6.4396 3.34605 1.50127 0
M  V30 51 H -5.72341 3.64219 -1.04909 0
M  V30 52 H -4.30384 2.59497 -1.54958 0
M  V30 53 H -4.07814 3.95322 -0.334641 0
M  V30 54 H -6.58534 0.75473 0.8551 0
M  V30 55 H -5.83877 0.537061 -0.782019 0
M  V30 56 H -6.90589 1.94425 -0.429025 0
M  V30 57 H 6.19948 2.94933 -3.14843 0
M  V30 58 H 7.74241 2.05787 -2.89338 0
M  V30 END ATOM
M  V30 BEGIN BOND
M  V30 1 1 1 2
M  V30 2 2 2 3
M  V30 3 1 3 4
M  V30 4 1 4 5
M  V30 5 1 5 6
M  V30 6 1 6 7
M  V30 7 2 7 8
M  V30 8 1 8 9
M  V30 9 2 9 10
M  V30 10 1 10 11
M  V30 11 1 11 12
M  V30 12 2 12 13
M  V30 13 1 13 14
M  V30 14 2 14 15
M  V30 15 1 15 16
M  V30 16 2 16 17
M  V30 17 1 17 18
M  V30 18 1 10 19
M  V30 19 2 19 20
M  V30 20 1 20 21
M  V30 21 2 21 22
M  V30 22 1 22 23
M  V30 23 2 23 24
M  V30 24 1 22 25
M  V30 25 1 25 26
M  V30 26 1 25 27
M  V30 27 1 25 28
M  V30 28 2 4 29
M  V30 29 1 29 30
M  V30 30 2 30 31
M  V30 31 1 30 32
M  V30 32 1 31 2
M  V30 33 1 11 7
M  V30 34 1 17 12
M  V30 35 1 24 19
M  V30 36 1 1 33
M  V30 37 1 1 34
M  V30 38 1 5 35
M  V30 39 1 5 36
M  V30 40 1 13 37
M  V30 41 1 14 38
M  V30 42 1 15 39
M  V30 43 1 16 40
M  V30 44 1 18 41
M  V30 45 1 18 42
M  V30 46 1 18 43
M  V30 47 1 20 44
M  V30 48 1 21 45
M  V30 49 1 23 46
M  V30 50 1 24 47
M  V30 51 1 26 48
M  V30 52 1 26 49
M  V30 53 1 26 50
M  V30 54 1 27 51
M  V30 55 1 27 52
M  V30 56 1 27 53
M  V30 57 1 28 54
M  V30 58 1 28 55
M  V30 59 1 28 56
M  V30 60 1 32 57
M  V30 61 1 32 58
M  V30 END BOND
M  V30 END CTAB
M  END
