
     RDKit          3D

  0  0  0  0  0  0  0  0  0  0999 V3000
M  V30 BEGIN CTAB
M  V30 COUNTS 25 26 0 0 0
M  V30 BEGIN ATOM
M  V30 1 N 4.91998 -0.14115 0.0906778 0
M  V30 2 C 3.50075 -0.170868 0.0598142 0
M  V30 3 C 2.78157 0.596407 -0.831649 0
M  V30 4 C 1.40379 0.551811 -0.843929 0
M  V30 5 C 0.710242 -0.262315 0.0361538 0
M  V30 6 C 1.47405 -1.01524 0.913575 0
M  V30 7 N 2.81902 -0.955262 0.907171 0
M  V30 8 C -0.735868 -0.320707 0.0363535 0
M  V30 9 C -1.38653 -1.47752 0.38474 0
M  V30 10 C -2.76134 -1.51747 0.380191 0
M  V30 11 C -3.45925 -0.38167 0.0217357 0
M  V30 12 C -2.81893 0.78525 -0.32991 0
M  V30 13 C -1.44248 0.80284 -0.318437 0
M  V30 14 N -3.62167 1.90293 -0.684055 0
M  V30 15 H 5.43856 -0.721832 -0.59848 0
M  V30 16 H 5.47419 0.430538 0.765903 0
M  V30 17 H 3.35474 1.23325 -1.5189 0
M  V30 18 H 0.859807 1.17115 -1.5618 0
M  V30 19 H 0.920253 -1.6564 1.60615 0
M  V30 20 H -0.837276 -2.38126 0.66983 0
M  V30 21 H -3.23759 -2.44523 0.660081 0
M  V30 22 H -4.53374 -0.400931 0.0145214 0
M  V30 23 H -0.945918 1.73575 -0.599923 0
M  V30 24 H -4.38398 2.18065 -0.0279223 0
M  V30 25 H -3.49238 2.4573 -1.55708 0
M  V30 END ATOM
M  V30 BEGIN BOND
M  V30 1 1 1 2
M  V30 2 2 2 3
M  V30 3 1 3 4
M  V30 4 2 4 5
M  V30 5 1 5 6
M  V30 6 2 6 7
M  V30 7 1 5 8
M  V30 8 2 8 9
M  V30 9 1 9 10
M  V30 10 2 10 11
M  V30 11 1 11 12
M  V30 12 2 12 13
M  V30 13 1 12 14
M  V30 14 1 7 2
M  V30 15 1 13 8
M  V30 16 1 1 15
M  V30 17 1 1 16
M  V30 18 1 3 17
M  V30 19 1 4 18
M  V30 20 1 6 19
M  V30 21 1 9 20
M  V30 22 1 10 21
M  V30 23 1 11 22
M  V30 24 1 13 23
M  V30 25 1 14 24
M  V30 26 1 14 25
M  V30 END BOND
M  V30 END CTAB
M  END
