
     RDKit          3D

  0  0  0  0  0  0  0  0  0  0999 V3000
M  V30 BEGIN CTAB
M  V30 COUNTS 72 74 0 0 0
M  V30 BEGIN ATOM
M  V30 1 N 6.72099 2.84923 0.909719 0
M  V30 2 C 7.09651 2.93939 -0.412981 0
M  V30 3 C 7.30401 1.67166 -1.12125 0
M  V30 4 C 6.31535 0.675831 -1.45792 0
M  V30 5 C 5.44993 -0.140021 -0.647183 0
M  V30 6 C 4.38527 0.507074 0.155268 0 CFG=2
M  V30 7 C 3.56856 -0.563715 0.875006 0
M  V30 8 O 4.27592 -1.35624 1.54441 0
M  V30 9 N 2.19212 -0.701974 0.83395 0
M  V30 10 C 1.21893 0.113389 0.163647 0
M  V30 11 C -0.180277 -0.280884 0.619268 0
M  V30 12 C -0.587102 -1.6703 0.329606 0
M  V30 13 C 0.715099 -2.50364 0.524065 0
M  V30 14 C 1.58985 -1.86201 1.54932 0
M  V30 15 C -1.00262 -2.01073 -1.04377 0
M  V30 16 C -1.91175 -1.12494 -1.79971 0
M  V30 17 C -3.16784 -0.898681 -1.0632 0
M  V30 18 C -4.43273 -0.70047 -1.78998 0
M  V30 19 C -5.05347 0.617638 -1.43081 0
M  V30 20 C -5.46685 1.37199 -2.50784 0
M  V30 21 C -6.04486 2.62618 -2.40341 0
M  V30 22 C -6.22018 3.15869 -1.14921 0
M  V30 23 C -5.80826 2.40672 -0.0738848 0
M  V30 24 C -5.21999 1.12937 -0.167797 0
M  V30 25 O -4.86719 0.512516 0.999452 0
M  V30 26 C -5.1923 -0.640916 1.67443 0
M  V30 27 C -4.29661 -0.821633 2.87983 0
M  V30 28 C -2.85998 -0.509909 2.69491 0
M  V30 29 N -1.99784 -1.66154 2.52768 0
M  V30 30 C -1.46383 -2.25178 1.40964 0
M  V30 31 O -1.72466 -3.49858 1.214 0
M  V30 32 N 3.52039 1.25574 -0.698914 0
M  V30 33 H 7.17195 2.10633 1.41714 0
M  V30 34 H 6.22818 3.55945 1.37094 0
M  V30 35 H 8.04353 3.56427 -0.448021 0
M  V30 36 H 6.31843 3.54509 -0.981914 0
M  V30 37 H 7.76929 2.00208 -2.14676 0
M  V30 38 H 8.25474 1.1553 -0.660312 0
M  V30 39 H 5.64536 1.21876 -2.29302 0
M  V30 40 H 6.8594 -0.0323377 -2.25381 0
M  V30 41 H 6.07836 -0.837609 0.00677314 0
M  V30 42 H 4.97654 -0.922338 -1.35436 0
M  V30 43 H 4.81958 1.10457 0.969536 0
M  V30 44 H 1.26367 0.0209549 -0.944765 0
M  V30 45 H 1.33458 1.18523 0.475221 0
M  V30 46 H -0.872927 0.519518 0.280629 0
M  V30 47 H -0.165569 -0.147967 1.74369 0
M  V30 48 H 0.388525 -3.51606 0.794274 0
M  V30 49 H 1.22298 -2.5875 -0.458594 0
M  V30 50 H 2.37813 -2.58881 1.81852 0
M  V30 51 H 1.05072 -1.57405 2.43826 0
M  V30 52 H -1.47357 -3.02277 -1.0133 0
M  V30 53 H -0.0752281 -2.1396 -1.68217 0
M  V30 54 H -2.15537 -1.65133 -2.75634 0
M  V30 55 H -1.4664 -0.156642 -2.10485 0
M  V30 56 H -3.31593 -1.82646 -0.426558 0
M  V30 57 H -2.99983 0.0128871 -0.443593 0
M  V30 58 H -4.33739 -0.843924 -2.8736 0
M  V30 59 H -5.16824 -1.46135 -1.45786 0
M  V30 60 H -5.33851 0.968767 -3.53 0
M  V30 61 H -6.35006 3.17225 -3.28476 0
M  V30 62 H -6.6685 4.13846 -1.01799 0
M  V30 63 H -5.97299 2.90952 0.890566 0
M  V30 64 H -6.23672 -0.601403 2.1384 0
M  V30 65 H -5.22485 -1.58335 1.10957 0
M  V30 66 H -4.71088 -0.196588 3.71214 0
M  V30 67 H -4.41447 -1.87713 3.2741 0
M  V30 68 H -2.75815 0.222274 1.85155 0
M  V30 69 H -2.52455 0.0598375 3.62188 0
M  V30 70 H -1.75779 -2.11256 3.47979 0
M  V30 71 H 3.77848 2.2699 -0.703794 0
M  V30 72 H 3.55093 0.931599 -1.69295 0
M  V30 END ATOM
M  V30 BEGIN BOND
M  V30 1 1 1 2
M  V30 2 1 2 3
M  V30 3 1 3 4
M  V30 4 1 4 5
M  V30 5 1 5 6
M  V30 6 1 6 7
M  V30 7 2 7 8
M  V30 8 1 7 9
M  V30 9 1 9 10
M  V30 10 1 10 11
M  V30 11 1 11 12
M  V30 12 1 12 13
M  V30 13 1 13 14
M  V30 14 1 12 15
M  V30 15 1 15 16
M  V30 16 1 16 17
M  V30 17 1 17 18
M  V30 18 1 18 19
M  V30 19 2 19 20
M  V30 20 1 20 21
M  V30 21 2 21 22
M  V30 22 1 22 23
M  V30 23 2 23 24
M  V30 24 1 24 25
M  V30 25 1 25 26
M  V30 26 1 26 27
M  V30 27 1 27 28
M  V30 28 1 28 29
M  V30 29 1 29 30
M  V30 30 2 30 31
M  V30 31 1 6 32
M  V30 32 1 14 9
M  V30 33 1 24 19
M  V30 34 1 30 12
M  V30 35 1 1 33
M  V30 36 1 1 34
M  V30 37 1 2 35
M  V30 38 1 2 36
M  V30 39 1 3 37
M  V30 40 1 3 38
M  V30 41 1 4 39
M  V30 42 1 4 40
M  V30 43 1 5 41
M  V30 44 1 5 42
M  V30 45 1 6 43 CFG=1
M  V30 46 1 10 44
M  V30 47 1 10 45
M  V30 48 1 11 46
M  V30 49 1 11 47
M  V30 50 1 13 48
M  V30 51 1 13 49
M  V30 52 1 14 50
M  V30 53 1 14 51
M  V30 54 1 15 52
M  V30 55 1 15 53
M  V30 56 1 16 54
M  V30 57 1 16 55
M  V30 58 1 17 56
M  V30 59 1 17 57
M  V30 60 1 18 58
M  V30 61 1 18 59
M  V30 62 1 20 60
M  V30 63 1 21 61
M  V30 64 1 22 62
M  V30 65 1 23 63
M  V30 66 1 26 64
M  V30 67 1 26 65
M  V30 68 1 27 66
M  V30 69 1 27 67
M  V30 70 1 28 68
M  V30 71 1 28 69
M  V30 72 1 29 70
M  V30 73 1 32 71
M  V30 74 1 32 72
M  V30 END BOND
M  V30 END CTAB
M  END
