
     RDKit          3D

  0  0  0  0  0  0  0  0  0  0999 V3000
M  V30 BEGIN CTAB
M  V30 COUNTS 30 30 0 0 0
M  V30 BEGIN ATOM
M  V30 1 N 0.240489 3.63606 -0.239665 0
M  V30 2 C 0.282873 2.20615 -0.128166 0
M  V30 3 N 1.47045 1.57831 -0.120004 0
M  V30 4 C 1.46584 0.230472 -0.0137603 0
M  V30 5 N 0.280733 -0.412372 0.0766302 0
M  V30 6 C -0.895401 0.233609 0.0660137 0
M  V30 7 N -0.890662 1.56472 -0.0383155 0
M  V30 8 C -2.14573 -0.573206 0.176745 0
M  V30 9 N -2.16922 -1.28751 1.44805 0
M  V30 10 C -2.17412 -1.54582 -0.971421 0
M  V30 11 C -3.3779 0.283431 0.0936863 0
M  V30 12 N 2.66937 -0.526804 0.0071605 0
M  V30 13 C 3.34965 -0.945918 1.20624 0
M  V30 14 C 3.2224 -0.875852 -1.30513 0
M  V30 15 H 0.623029 4.17683 0.564919 0
M  V30 16 H -0.158563 4.05763 -1.09835 0
M  V30 17 H -3.09022 -1.18642 1.9289 0
M  V30 18 H -1.49487 -0.752313 2.07748 0
M  V30 19 H -2.56519 -1.09364 -1.89313 0
M  V30 20 H -2.88523 -2.39509 -0.740237 0
M  V30 21 H -1.15822 -1.91738 -1.19732 0
M  V30 22 H -3.85602 0.379958 1.10696 0
M  V30 23 H -4.15259 -0.173948 -0.573127 0
M  V30 24 H -3.19935 1.31658 -0.251169 0
M  V30 25 H 4.44647 -0.960914 1.04611 0
M  V30 26 H 3.07161 -1.97796 1.52452 0
M  V30 27 H 3.08433 -0.240222 2.00935 0
M  V30 28 H 2.60403 -1.7146 -1.67378 0
M  V30 29 H 3.11004 0.0469142 -1.93249 0
M  V30 30 H 4.29197 -1.13069 -1.15671 0
M  V30 END ATOM
M  V30 BEGIN BOND
M  V30 1 1 1 2
M  V30 2 2 2 3
M  V30 3 1 3 4
M  V30 4 2 4 5
M  V30 5 1 5 6
M  V30 6 2 6 7
M  V30 7 1 6 8
M  V30 8 1 8 9
M  V30 9 1 8 10
M  V30 10 1 8 11
M  V30 11 1 4 12
M  V30 12 1 12 13
M  V30 13 1 12 14
M  V30 14 1 7 2
M  V30 15 1 1 15
M  V30 16 1 1 16
M  V30 17 1 9 17
M  V30 18 1 9 18
M  V30 19 1 10 19
M  V30 20 1 10 20
M  V30 21 1 10 21
M  V30 22 1 11 22
M  V30 23 1 11 23
M  V30 24 1 11 24
M  V30 25 1 13 25
M  V30 26 1 13 26
M  V30 27 1 13 27
M  V30 28 1 14 28
M  V30 29 1 14 29
M  V30 30 1 14 30
M  V30 END BOND
M  V30 END CTAB
M  END
