
     RDKit          3D

  0  0  0  0  0  0  0  0  0  0999 V3000
M  V30 BEGIN CTAB
M  V30 COUNTS 32 33 0 0 0
M  V30 BEGIN ATOM
M  V30 1 C -1.69227 -2.10248 -0.910336 0
M  V30 2 C -1.43923 -0.81076 -1.65431 0
M  V30 3 C -1.61694 0.307889 -0.700963 0
M  V30 4 C -0.64782 0.615971 0.196043 0
M  V30 5 C -0.897741 1.68748 1.06919 0
M  V30 6 N 0.129574 1.99117 2.00228 0
M  V30 7 N -2.05122 2.37691 1.01414 0
M  V30 8 C -3.00618 2.06463 0.121607 0
M  V30 9 N -4.2304 2.81221 0.0796165 0
M  V30 10 N -2.77107 1.04363 -0.711751 0
M  V30 11 C 0.611668 -0.108029 0.281202 0
M  V30 12 C 1.63818 0.0364785 -0.63075 0
M  V30 13 C 2.84515 -0.64666 -0.532049 0
M  V30 14 N 3.8529 -0.449511 -1.51039 0
M  V30 15 N 5.02457 -0.322004 -1.16765 0 CHG=1
M  V30 16 N 6.26031 -0.391927 -1.20152 0 CHG=-1
M  V30 17 C 3.05887 -1.51847 0.516231 0
M  V30 18 Cl 4.56078 -2.40561 0.687895 0
M  V30 19 C 2.03997 -1.67724 1.44324 0
M  V30 20 C 0.84337 -0.991693 1.33386 0
M  V30 21 H -2.58225 -2.64728 -1.34897 0
M  V30 22 H -0.846268 -2.81442 -0.958898 0
M  V30 23 H -1.88887 -1.9171 0.182663 0
M  V30 24 H -0.402043 -0.871626 -2.04734 0
M  V30 25 H -2.18613 -0.759616 -2.48377 0
M  V30 26 H 0.201326 1.42104 2.8703 0
M  V30 27 H 0.799195 2.756 1.84285 0
M  V30 28 H -5.08011 2.34619 0.513413 0
M  V30 29 H -4.28776 3.74783 -0.34587 0
M  V30 30 H 1.45059 0.724109 -1.44678 0
M  V30 31 H 2.24333 -2.36885 2.25363 0
M  V30 32 H 0.0665244 -1.12827 2.06179 0
M  V30 END ATOM
M  V30 BEGIN BOND
M  V30 1 1 1 2
M  V30 2 1 2 3
M  V30 3 2 3 4
M  V30 4 1 4 5
M  V30 5 1 5 6
M  V30 6 2 5 7
M  V30 7 1 7 8
M  V30 8 1 8 9
M  V30 9 2 8 10
M  V30 10 1 4 11
M  V30 11 2 11 12
M  V30 12 1 12 13
M  V30 13 1 13 14
M  V30 14 2 14 15 CFG=2
M  V30 15 2 15 16
M  V30 16 2 13 17
M  V30 17 1 17 18
M  V30 18 1 17 19
M  V30 19 2 19 20
M  V30 20 1 10 3
M  V30 21 1 20 11
M  V30 22 1 1 21
M  V30 23 1 1 22
M  V30 24 1 1 23
M  V30 25 1 2 24
M  V30 26 1 2 25
M  V30 27 1 6 26
M  V30 28 1 6 27
M  V30 29 1 9 28
M  V30 30 1 9 29
M  V30 31 1 12 30
M  V30 32 1 19 31
M  V30 33 1 20 32
M  V30 END BOND
M  V30 END CTAB
M  END
