
     RDKit          3D

  0  0  0  0  0  0  0  0  0  0999 V3000
M  V30 BEGIN CTAB
M  V30 COUNTS 22 22 0 0 0
M  V30 BEGIN ATOM
M  V30 1 N 0.527171 -2.20183 0.639712 0
M  V30 2 C 0.896308 -1.03735 -0.191556 0
M  V30 3 C -0.308182 -0.18333 -0.211476 0
M  V30 4 C -0.40708 1.02562 0.443691 0
M  V30 5 C -1.55618 1.78424 0.400392 0
M  V30 6 F -1.55788 2.97307 1.08551 0
M  V30 7 C -2.67325 1.38221 -0.298514 0
M  V30 8 C -2.58333 0.165815 -0.961188 0
M  V30 9 C -1.42624 -0.588837 -0.912208 0
M  V30 10 F -1.39886 -1.7762 -1.58511 0
M  V30 11 C 2.08033 -0.390597 0.459627 0
M  V30 12 N 2.5897 0.758057 -0.212124 0
M  V30 13 H 1.01516 -3.06292 0.298568 0
M  V30 14 H 0.720782 -1.9803 1.63561 0
M  V30 15 H 1.08947 -1.4288 -1.19829 0
M  V30 16 H 0.436143 1.40508 1.01949 0
M  V30 17 H -3.56709 1.98702 -0.324213 0
M  V30 18 H -3.46635 -0.145993 -1.51028 0
M  V30 19 H 1.77043 -0.0703402 1.48669 0
M  V30 20 H 2.89395 -1.12782 0.609615 0
M  V30 21 H 2.1337 0.986469 -1.10581 0
M  V30 22 H 2.79132 1.52672 0.431859 0
M  V30 END ATOM
M  V30 BEGIN BOND
M  V30 1 1 1 2
M  V30 2 1 2 3
M  V30 3 2 3 4
M  V30 4 1 4 5
M  V30 5 1 5 6
M  V30 6 2 5 7
M  V30 7 1 7 8
M  V30 8 2 8 9
M  V30 9 1 9 10
M  V30 10 1 2 11
M  V30 11 1 11 12
M  V30 12 1 9 3
M  V30 13 1 1 13
M  V30 14 1 1 14
M  V30 15 1 2 15
M  V30 16 1 4 16
M  V30 17 1 7 17
M  V30 18 1 8 18
M  V30 19 1 11 19
M  V30 20 1 11 20
M  V30 21 1 12 21
M  V30 22 1 12 22
M  V30 END BOND
M  V30 END CTAB
M  END
