
     RDKit          3D

  0  0  0  0  0  0  0  0  0  0999 V3000
M  V30 BEGIN CTAB
M  V30 COUNTS 24 25 0 0 0
M  V30 BEGIN ATOM
M  V30 1 N 4.97304 0.00580305 -0.753095 0
M  V30 2 C 3.67946 -0.396028 -0.321786 0
M  V30 3 C 3.39657 -1.27024 0.68367 0
M  V30 4 N 2.06312 -1.35868 0.750794 0
M  V30 5 N 1.5073 -0.581747 -0.164175 0
M  V30 6 N 2.47646 -0.00184847 -0.810415 0
M  V30 7 C 0.0607111 -0.480964 -0.319322 0
M  V30 8 C -0.480069 0.597797 0.525583 0
M  V30 9 O 0.299349 1.29743 1.26163 0
M  V30 10 N -1.86936 0.85342 0.515914 0
M  V30 11 N -2.44563 1.80132 1.24113 0
M  V30 12 C -3.77088 1.82859 1.0445 0
M  V30 13 C -4.08221 0.844164 0.140135 0
M  V30 14 C -2.847 0.253249 -0.166375 0
M  V30 15 N -2.67813 -0.81946 -1.06726 0
M  V30 16 H 5.11897 0.878914 -1.30785 0
M  V30 17 H 5.79428 -0.588308 -0.507694 0
M  V30 18 H 4.15079 -1.77404 1.28741 0
M  V30 19 H -0.379203 -1.47738 -0.119142 0
M  V30 20 H -0.193194 -0.231393 -1.38267 0
M  V30 21 H -4.50946 2.48193 1.48763 0
M  V30 22 H -5.02985 0.544949 -0.276513 0
M  V30 23 H -2.74499 -1.79761 -0.711771 0
M  V30 24 H -2.49008 -0.609856 -2.06933 0
M  V30 END ATOM
M  V30 BEGIN BOND
M  V30 1 1 1 2
M  V30 2 1 2 3
M  V30 3 2 3 4
M  V30 4 1 4 5
M  V30 5 1 5 6
M  V30 6 1 5 7
M  V30 7 1 7 8
M  V30 8 2 8 9
M  V30 9 1 8 10
M  V30 10 1 10 11
M  V30 11 2 11 12
M  V30 12 1 12 13
M  V30 13 2 13 14
M  V30 14 1 14 15
M  V30 15 2 6 2
M  V30 16 1 14 10
M  V30 17 1 1 16
M  V30 18 1 1 17
M  V30 19 1 3 18
M  V30 20 1 7 19
M  V30 21 1 7 20
M  V30 22 1 12 21
M  V30 23 1 13 22
M  V30 24 1 15 23
M  V30 25 1 15 24
M  V30 END BOND
M  V30 END CTAB
M  END
