
     RDKit          3D

  0  0  0  0  0  0  0  0  0  0999 V3000
M  V30 BEGIN CTAB
M  V30 COUNTS 16 15 0 0 0
M  V30 BEGIN ATOM
M  V30 1 C -0.953203 -0.323206 0.309408 0 CFG=1
M  V30 2 C -1.47394 1.06613 -0.00217942 0
M  V30 3 N -1.70779 -1.28996 -0.446983 0
M  V30 4 C 0.476497 -0.470798 0.0167204 0
M  V30 5 O 0.815976 -1.37997 -0.815182 0
M  V30 6 N 1.48869 0.322611 0.592637 0
M  V30 7 N 2.81479 0.113562 0.25818 0
M  V30 8 H -1.11546 -0.480781 1.40858 0
M  V30 9 H -0.648391 1.81409 0.0909192 0
M  V30 10 H -1.88854 1.09983 -1.03174 0
M  V30 11 H -2.2938 1.33882 0.687057 0
M  V30 12 H -1.17505 -2.19771 -0.416911 0
M  V30 13 H -1.76285 -0.958687 -1.44751 0
M  V30 14 H 1.23731 1.06124 1.26572 0
M  V30 15 H 3.27646 0.980545 -0.088674 0
M  V30 16 H 2.9093 -0.695719 -0.380039 0
M  V30 END ATOM
M  V30 BEGIN BOND
M  V30 1 1 1 2
M  V30 2 1 1 3
M  V30 3 1 1 4
M  V30 4 2 4 5
M  V30 5 1 4 6
M  V30 6 1 6 7
M  V30 7 1 1 8 CFG=1
M  V30 8 1 2 9
M  V30 9 1 2 10
M  V30 10 1 2 11
M  V30 11 1 3 12
M  V30 12 1 3 13
M  V30 13 1 6 14
M  V30 14 1 7 15
M  V30 15 1 7 16
M  V30 END BOND
M  V30 END CTAB
M  END
