
     RDKit          3D

  0  0  0  0  0  0  0  0  0  0999 V3000
M  V30 BEGIN CTAB
M  V30 COUNTS 57 60 0 0 0
M  V30 BEGIN ATOM
M  V30 1 N -7.50227 -0.0227268 1.69552 0
M  V30 2 C -6.17197 0.512193 1.90014 0
M  V30 3 C -5.48121 1.00655 0.64689 0
M  V30 4 C -4.20781 0.337808 1.19124 0
M  V30 5 C -5.08691 -0.546593 2.00342 0
M  V30 6 C -3.36878 -0.275129 0.161504 0
M  V30 7 N -3.76069 -1.31576 -0.590139 0
M  V30 8 C -2.92617 -1.82708 -1.53175 0
M  V30 9 N -3.37893 -2.94153 -2.31694 0
M  V30 10 N -1.69836 -1.3427 -1.76427 0
M  V30 11 C -1.24362 -0.280509 -1.02751 0
M  V30 12 C -2.0962 0.222458 -0.083094 0
M  V30 13 N 0.061934 0.221616 -1.28188 0
M  V30 14 C 0.357763 1.46944 -0.618566 0
M  V30 15 C 1.40904 2.17656 -1.44179 0
M  V30 16 C 2.65542 1.38853 -1.6816 0
M  V30 17 N 2.84515 0.264499 -0.805029 0
M  V30 18 C 2.14585 -0.926287 -1.31346 0
M  V30 19 C 0.936367 -0.540921 -2.14182 0
M  V30 20 C 4.19041 -0.11103 -0.591433 0
M  V30 21 C 5.08361 0.891884 0.0585889 0
M  V30 22 C 4.74604 1.15717 1.50303 0
M  V30 23 C 4.63439 -0.100631 2.31015 0
M  V30 24 C 3.64237 -1.01581 1.59801 0
M  V30 25 C 4.2215 -1.37559 0.272043 0
M  V30 26 H -8.04327 0.517781 0.970066 0
M  V30 27 H -7.42313 -1.04108 1.45071 0
M  V30 28 H -6.13415 1.28082 2.69627 0
M  V30 29 H -5.83991 0.551925 -0.301886 0
M  V30 30 H -5.39908 2.11639 0.584427 0
M  V30 31 H -3.67404 1.09377 1.79588 0
M  V30 32 H -5.39967 -1.48621 1.50309 0
M  V30 33 H -4.76166 -0.760201 3.0529 0
M  V30 34 H -3.05583 -2.9957 -3.30601 0
M  V30 35 H -3.99762 -3.68264 -1.96036 0
M  V30 36 H -1.74906 1.0703 0.522411 0
M  V30 37 H 0.696155 1.3037 0.41242 0
M  V30 38 H -0.513884 2.15981 -0.59174 0
M  V30 39 H 0.940177 2.32332 -2.46264 0
M  V30 40 H 1.58089 3.1845 -1.06237 0
M  V30 41 H 3.49701 2.10099 -1.48159 0
M  V30 42 H 2.80748 1.09425 -2.74511 0
M  V30 43 H 2.76635 -1.56463 -1.9341 0
M  V30 44 H 1.76377 -1.50584 -0.457165 0
M  V30 45 H 0.419336 -1.49022 -2.39443 0
M  V30 46 H 1.1772 -0.0552622 -3.08344 0
M  V30 47 H 4.65249 -0.401906 -1.55563 0
M  V30 48 H 6.11085 0.40777 0.08322 0
M  V30 49 H 5.22069 1.81719 -0.486172 0
M  V30 50 H 3.83513 1.74797 1.65142 0
M  V30 51 H 5.58608 1.7544 1.92751 0
M  V30 52 H 5.62121 -0.561926 2.42119 0
M  V30 53 H 4.178 0.201438 3.2991 0
M  V30 54 H 3.47499 -1.88004 2.25505 0
M  V30 55 H 2.7303 -0.405855 1.44819 0
M  V30 56 H 5.28129 -1.74467 0.363611 0
M  V30 57 H 3.64499 -2.17657 -0.215253 0
M  V30 END ATOM
M  V30 BEGIN BOND
M  V30 1 1 1 2
M  V30 2 1 2 3
M  V30 3 1 3 4
M  V30 4 1 4 5
M  V30 5 1 4 6
M  V30 6 2 6 7
M  V30 7 1 7 8
M  V30 8 1 8 9
M  V30 9 2 8 10
M  V30 10 1 10 11
M  V30 11 2 11 12
M  V30 12 1 11 13
M  V30 13 1 13 14
M  V30 14 1 14 15
M  V30 15 1 15 16
M  V30 16 1 16 17
M  V30 17 1 17 18
M  V30 18 1 18 19
M  V30 19 1 17 20
M  V30 20 1 20 21
M  V30 21 1 21 22
M  V30 22 1 22 23
M  V30 23 1 23 24
M  V30 24 1 24 25
M  V30 25 1 5 2
M  V30 26 1 12 6
M  V30 27 1 19 13
M  V30 28 1 25 20
M  V30 29 1 1 26
M  V30 30 1 1 27
M  V30 31 1 2 28
M  V30 32 1 3 29
M  V30 33 1 3 30
M  V30 34 1 4 31
M  V30 35 1 5 32
M  V30 36 1 5 33
M  V30 37 1 9 34
M  V30 38 1 9 35
M  V30 39 1 12 36
M  V30 40 1 14 37
M  V30 41 1 14 38
M  V30 42 1 15 39
M  V30 43 1 15 40
M  V30 44 1 16 41
M  V30 45 1 16 42
M  V30 46 1 18 43
M  V30 47 1 18 44
M  V30 48 1 19 45
M  V30 49 1 19 46
M  V30 50 1 20 47
M  V30 51 1 21 48
M  V30 52 1 21 49
M  V30 53 1 22 50
M  V30 54 1 22 51
M  V30 55 1 23 52
M  V30 56 1 23 53
M  V30 57 1 24 54
M  V30 58 1 24 55
M  V30 59 1 25 56
M  V30 60 1 25 57
M  V30 END BOND
M  V30 END CTAB
M  END
