
     RDKit          3D

  0  0  0  0  0  0  0  0  0  0999 V3000
M  V30 BEGIN CTAB
M  V30 COUNTS 50 52 0 0 0
M  V30 BEGIN ATOM
M  V30 1 O -2.7933 -0.571753 2.10257 0
M  V30 2 C -2.65428 -0.0979927 0.954435 0
M  V30 3 C -1.28005 -0.0636528 0.400202 0
M  V30 4 C -0.279389 -0.807282 0.971267 0
M  V30 5 C 1.01753 -0.768205 0.451378 0
M  V30 6 C 1.33548 -0.00408918 -0.623657 0
M  V30 7 C 0.320219 0.745647 -1.1971 0
M  V30 8 C -0.964323 0.709218 -0.685087 0
M  V30 9 C 2.68365 0.0488343 -1.16465 0
M  V30 10 O 2.79116 0.444604 -2.33179 0
M  V30 11 N 3.78402 -0.330625 -0.390948 0
M  V30 12 C 5.14773 -0.352595 -0.702578 0
M  V30 13 C 5.59795 0.424537 -1.7724 0
M  V30 14 C 6.96716 0.507101 -2.06395 0
M  V30 15 N 7.38066 1.3036 -3.15506 0
M  V30 16 C 7.86737 -0.179968 -1.29186 0
M  V30 17 C 7.44622 -0.943615 -0.244509 0
M  V30 18 C 6.05721 -1.03077 0.0529527 0
M  V30 19 C 5.69141 -1.91219 1.12432 0
M  V30 20 O 4.55017 -2.1752 1.47899 0
M  V30 21 O 6.70901 -2.55656 1.86458 0
M  V30 22 N -3.75643 0.378657 0.226011 0
M  V30 23 C -5.11901 0.410507 0.601675 0
M  V30 24 C -5.61161 -0.358803 1.64712 0
M  V30 25 C -6.94949 -0.419506 2.01378 0
M  V30 26 N -7.39061 -1.22847 3.09746 0
M  V30 27 C -7.86274 0.317562 1.31398 0
M  V30 28 C -7.41528 1.08478 0.28138 0
M  V30 29 C -6.06158 1.15933 -0.1035 0
M  V30 30 C -5.69159 2.04176 -1.17501 0
M  V30 31 O -4.57832 2.29715 -1.63222 0
M  V30 32 O -6.74838 2.74076 -1.82694 0
M  V30 33 H -0.497994 -1.42704 1.82931 0
M  V30 34 H 1.73507 -1.3931 0.966591 0
M  V30 35 H 0.582701 1.35254 -2.05486 0
M  V30 36 H -1.67971 1.33508 -1.20415 0
M  V30 37 H 3.5045 -0.59794 0.616453 0
M  V30 38 H 4.92711 0.991138 -2.39619 0
M  V30 39 H 7.42711 0.973246 -4.13828 0
M  V30 40 H 7.6557 2.28691 -2.95107 0
M  V30 41 H 8.92879 -0.102798 -1.53329 0
M  V30 42 H 8.16143 -1.49427 0.375981 0
M  V30 43 H 6.95469 -3.48353 1.56313 0
M  V30 44 H -3.49185 0.719782 -0.750682 0
M  V30 45 H -4.9223 -0.966783 2.21254 0
M  V30 46 H -6.89789 -2.12456 3.29683 0
M  V30 47 H -8.19068 -0.981677 3.72022 0
M  V30 48 H -8.91612 0.268053 1.60362 0
M  V30 49 H -8.14083 1.66514 -0.268907 0
M  V30 50 H -7.33027 2.16701 -2.43337 0
M  V30 END ATOM
M  V30 BEGIN BOND
M  V30 1 2 1 2
M  V30 2 1 2 3
M  V30 3 2 3 4
M  V30 4 1 4 5
M  V30 5 2 5 6
M  V30 6 1 6 7
M  V30 7 2 7 8
M  V30 8 1 6 9
M  V30 9 2 9 10
M  V30 10 1 9 11
M  V30 11 1 11 12
M  V30 12 2 12 13
M  V30 13 1 13 14
M  V30 14 1 14 15
M  V30 15 2 14 16
M  V30 16 1 16 17
M  V30 17 2 17 18
M  V30 18 1 18 19
M  V30 19 2 19 20
M  V30 20 1 19 21
M  V30 21 1 2 22
M  V30 22 1 22 23
M  V30 23 2 23 24
M  V30 24 1 24 25
M  V30 25 1 25 26
M  V30 26 2 25 27
M  V30 27 1 27 28
M  V30 28 2 28 29
M  V30 29 1 29 30
M  V30 30 2 30 31
M  V30 31 1 30 32
M  V30 32 1 8 3
M  V30 33 1 18 12
M  V30 34 1 29 23
M  V30 35 1 4 33
M  V30 36 1 5 34
M  V30 37 1 7 35
M  V30 38 1 8 36
M  V30 39 1 11 37
M  V30 40 1 13 38
M  V30 41 1 15 39
M  V30 42 1 15 40
M  V30 43 1 16 41
M  V30 44 1 17 42
M  V30 45 1 21 43
M  V30 46 1 22 44
M  V30 47 1 24 45
M  V30 48 1 26 46
M  V30 49 1 26 47
M  V30 50 1 27 48
M  V30 51 1 28 49
M  V30 52 1 32 50
M  V30 END BOND
M  V30 END CTAB
M  END
