
     RDKit          3D

  0  0  0  0  0  0  0  0  0  0999 V3000
M  V30 BEGIN CTAB
M  V30 COUNTS 35 35 0 0 0
M  V30 BEGIN ATOM
M  V30 1 N 3.52133 -2.14262 0.241055 0
M  V30 2 C 2.99726 -0.784718 0.462642 0
M  V30 3 C 3.53595 0.0747356 -0.620666 0
M  V30 4 C 2.86325 1.42076 -0.716939 0
M  V30 5 C 1.39401 1.2027 -0.864333 0
M  V30 6 C 0.774084 0.372574 0.209701 0
M  V30 7 C 1.52885 -0.871573 0.558408 0
M  V30 8 N -0.546677 -0.00902753 -0.223659 0
M  V30 9 C -1.71715 0.41782 0.444 0
M  V30 10 O -1.62189 1.15941 1.4569 0
M  V30 11 C -3.07429 -0.00220387 -0.0396822 0
M  V30 12 N -2.94977 -0.847394 -1.20904 0
M  V30 13 C -3.79663 1.27819 -0.453131 0
M  V30 14 C -3.81535 -0.680689 1.06851 0
M  V30 15 H 4.39163 -2.11211 -0.350946 0
M  V30 16 H 2.80256 -2.61265 -0.373936 0
M  V30 17 H 3.48337 -0.45857 1.42818 0
M  V30 18 H 4.62101 0.256573 -0.416256 0
M  V30 19 H 3.49952 -0.406228 -1.63249 0
M  V30 20 H 3.23016 1.89508 -1.65343 0
M  V30 21 H 3.1354 2.10035 0.107589 0
M  V30 22 H 1.18871 0.782822 -1.8709 0
M  V30 23 H 0.902628 2.20475 -0.840855 0
M  V30 24 H 0.653983 1.02044 1.10911 0
M  V30 25 H 1.14007 -1.74727 -0.0301766 0
M  V30 26 H 1.26523 -1.12248 1.62286 0
M  V30 27 H -0.638015 -0.617149 -1.05341 0
M  V30 28 H -2.51709 -0.34021 -1.98813 0
M  V30 29 H -2.38005 -1.67453 -0.961319 0
M  V30 30 H -4.55105 0.993912 -1.21639 0
M  V30 31 H -4.31827 1.7388 0.420708 0
M  V30 32 H -3.06861 2.01063 -0.846491 0
M  V30 33 H -3.46903 -1.72899 1.1814 0
M  V30 34 H -4.91033 -0.615478 0.888278 0
M  V30 35 H -3.55482 -0.155675 2.01423 0
M  V30 END ATOM
M  V30 BEGIN BOND
M  V30 1 1 1 2
M  V30 2 1 2 3
M  V30 3 1 3 4
M  V30 4 1 4 5
M  V30 5 1 5 6
M  V30 6 1 6 7
M  V30 7 1 6 8
M  V30 8 1 8 9
M  V30 9 2 9 10
M  V30 10 1 9 11
M  V30 11 1 11 12
M  V30 12 1 11 13
M  V30 13 1 11 14
M  V30 14 1 7 2
M  V30 15 1 1 15
M  V30 16 1 1 16
M  V30 17 1 2 17
M  V30 18 1 3 18
M  V30 19 1 3 19
M  V30 20 1 4 20
M  V30 21 1 4 21
M  V30 22 1 5 22
M  V30 23 1 5 23
M  V30 24 1 6 24
M  V30 25 1 7 25
M  V30 26 1 7 26
M  V30 27 1 8 27
M  V30 28 1 12 28
M  V30 29 1 12 29
M  V30 30 1 13 30
M  V30 31 1 13 31
M  V30 32 1 13 32
M  V30 33 1 14 33
M  V30 34 1 14 34
M  V30 35 1 14 35
M  V30 END BOND
M  V30 END CTAB
M  END
