
     RDKit          3D

  0  0  0  0  0  0  0  0  0  0999 V3000
M  V30 BEGIN CTAB
M  V30 COUNTS 31 32 0 0 0
M  V30 BEGIN ATOM
M  V30 1 N -2.49949 2.66627 -0.559963 0
M  V30 2 C -2.22037 1.55641 0.279119 0
M  V30 3 C -1.05482 0.739123 -0.22762 0
M  V30 4 N -0.851925 -0.36446 0.670329 0
M  V30 5 C -1.97429 -1.27493 0.542722 0
M  V30 6 C -1.44403 -2.56073 -0.0769985 0
M  V30 7 C -0.161433 -2.02099 -0.736208 0
M  V30 8 C 0.304303 -1.15015 0.434793 0 CFG=1
M  V30 9 C 1.54871 -0.454989 0.160099 0
M  V30 10 N 2.4074 -0.743763 -0.836622 0
M  V30 11 N 3.42947 0.0749425 -0.786468 0
M  V30 12 C 3.31238 0.943925 0.230921 0
M  V30 13 C 2.09817 0.597733 0.83831 0
M  V30 14 N 4.22924 1.96321 0.582521 0
M  V30 15 H -2.67556 2.39188 -1.50825 0
M  V30 16 H -3.19082 3.30402 -0.204661 0
M  V30 17 H -1.97888 1.97533 1.29763 0
M  V30 18 H -3.15093 0.985541 0.418955 0
M  V30 19 H -1.31116 0.419311 -1.26179 0
M  V30 20 H -0.176434 1.39565 -0.314908 0
M  V30 21 H -2.75519 -0.901544 -0.146276 0
M  V30 22 H -2.3365 -1.5085 1.54371 0
M  V30 23 H -2.11268 -2.97641 -0.835281 0
M  V30 24 H -1.10594 -3.26179 0.696219 0
M  V30 25 H -0.414666 -1.43074 -1.62343 0
M  V30 26 H 0.580609 -2.81805 -0.885665 0
M  V30 27 H 0.379631 -1.87445 1.29434 0
M  V30 28 H 2.30453 -1.50009 -1.55891 0
M  V30 29 H 1.70188 1.09735 1.68861 0
M  V30 30 H 3.9216 2.95182 0.485874 0
M  V30 31 H 5.1972 1.77906 0.930449 0
M  V30 END ATOM
M  V30 BEGIN BOND
M  V30 1 1 1 2
M  V30 2 1 2 3
M  V30 3 1 3 4
M  V30 4 1 4 5
M  V30 5 1 5 6
M  V30 6 1 6 7
M  V30 7 1 7 8
M  V30 8 1 8 9
M  V30 9 1 9 10
M  V30 10 1 10 11
M  V30 11 2 11 12
M  V30 12 1 12 13
M  V30 13 1 12 14
M  V30 14 1 8 4
M  V30 15 2 13 9
M  V30 16 1 1 15
M  V30 17 1 1 16
M  V30 18 1 2 17
M  V30 19 1 2 18
M  V30 20 1 3 19
M  V30 21 1 3 20
M  V30 22 1 5 21
M  V30 23 1 5 22
M  V30 24 1 6 23
M  V30 25 1 6 24
M  V30 26 1 7 25
M  V30 27 1 7 26
M  V30 28 1 8 27 CFG=1
M  V30 29 1 10 28
M  V30 30 1 13 29
M  V30 31 1 14 30
M  V30 32 1 14 31
M  V30 END BOND
M  V30 END CTAB
M  END
