
     RDKit          3D

  0  0  0  0  0  0  0  0  0  0999 V3000
M  V30 BEGIN CTAB
M  V30 COUNTS 40 42 0 0 0
M  V30 BEGIN ATOM
M  V30 1 N 4.44462 -3.11719 -0.387311 0
M  V30 2 C 3.39553 -2.61966 -0.363205 0
M  V30 3 C 2.09403 -2.0311 -0.318006 0
M  V30 4 C 1.007 -2.87684 -0.565754 0
M  V30 5 N 1.21384 -4.24458 -0.859188 0
M  V30 6 N -0.206007 -2.34146 -0.512669 0
M  V30 7 C -0.46807 -1.05465 -0.240278 0
M  V30 8 C 0.600806 -0.233754 0.000693238 0
M  V30 9 C 1.91722 -0.717106 -0.0354042 0
M  V30 10 C 3.03966 0.175026 0.210258 0
M  V30 11 C 4.14111 0.270968 -0.6143 0
M  V30 12 N 5.13268 1.11832 -0.298494 0
M  V30 13 C 5.11276 1.89428 0.797165 0
M  V30 14 N 4.04738 1.81969 1.61938 0
M  V30 15 C 3.045 0.983697 1.32907 0
M  V30 16 N 6.14414 2.78483 1.13842 0
M  V30 17 C -1.81165 -0.506757 -0.191292 0
M  V30 18 C -2.83644 -1.41551 -0.449478 0
M  V30 19 C -4.14007 -0.9835 -0.424127 0
M  V30 20 C -4.42338 0.339446 -0.144802 0
M  V30 21 C -3.41506 1.23152 0.108773 0
M  V30 22 C -2.10697 0.788515 0.0812156 0
M  V30 23 C -3.73996 2.6448 0.405967 0
M  V30 24 C -5.8297 0.804836 -0.117599 0
M  V30 25 H 0.404799 -4.89799 -0.823731 0
M  V30 26 H 2.16253 -4.59877 -1.10836 0
M  V30 27 H 0.532501 0.818594 0.231421 0
M  V30 28 H 4.19579 -0.342486 -1.52854 0
M  V30 29 H 2.20775 0.949738 2.00948 0
M  V30 30 H 6.25407 3.67063 0.614142 0
M  V30 31 H 6.7878 2.54435 1.91586 0
M  V30 32 H -2.59392 -2.45278 -0.667375 0
M  V30 33 H -4.95529 -1.6957 -0.627127 0
M  V30 34 H -1.31563 1.51021 0.285038 0
M  V30 35 H -2.82828 3.28985 0.296951 0
M  V30 36 H -4.49309 3.06345 -0.266667 0
M  V30 37 H -4.09187 2.78601 1.45579 0
M  V30 38 H -6.15132 1.17798 -1.10932 0
M  V30 39 H -6.46053 -0.0773686 0.12215 0
M  V30 40 H -6.01378 1.54046 0.690758 0
M  V30 END ATOM
M  V30 BEGIN BOND
M  V30 1 3 1 2
M  V30 2 1 2 3
M  V30 3 2 3 4
M  V30 4 1 4 5
M  V30 5 1 4 6
M  V30 6 2 6 7
M  V30 7 1 7 8
M  V30 8 2 8 9
M  V30 9 1 9 10
M  V30 10 2 10 11
M  V30 11 1 11 12
M  V30 12 2 12 13
M  V30 13 1 13 14
M  V30 14 2 14 15
M  V30 15 1 13 16
M  V30 16 1 7 17
M  V30 17 2 17 18
M  V30 18 1 18 19
M  V30 19 2 19 20
M  V30 20 1 20 21
M  V30 21 2 21 22
M  V30 22 1 21 23
M  V30 23 1 20 24
M  V30 24 1 9 3
M  V30 25 1 15 10
M  V30 26 1 22 17
M  V30 27 1 5 25
M  V30 28 1 5 26
M  V30 29 1 8 27
M  V30 30 1 11 28
M  V30 31 1 15 29
M  V30 32 1 16 30
M  V30 33 1 16 31
M  V30 34 1 18 32
M  V30 35 1 19 33
M  V30 36 1 22 34
M  V30 37 1 23 35
M  V30 38 1 23 36
M  V30 39 1 23 37
M  V30 40 1 24 38
M  V30 41 1 24 39
M  V30 42 1 24 40
M  V30 END BOND
M  V30 END CTAB
M  END
