
     RDKit          3D

  0  0  0  0  0  0  0  0  0  0999 V3000
M  V30 BEGIN CTAB
M  V30 COUNTS 23 23 0 0 0
M  V30 BEGIN ATOM
M  V30 1 N -2.54648 1.1252 0.315131 0
M  V30 2 C -1.26058 0.613837 0.602745 0 CFG=2
M  V30 3 C -0.232681 1.28722 -0.279836 0
M  V30 4 N 0.849636 0.333789 -0.264605 0
M  V30 5 C 0.244744 -0.966757 -0.456248 0
M  V30 6 C -1.11844 -0.838449 0.193419 0 CFG=2
M  V30 7 N -2.19039 -1.14543 -0.705365 0
M  V30 8 C 2.22195 0.645662 -0.0933841 0
M  V30 9 O 2.59462 1.84577 0.0645467 0
M  V30 10 C 3.19372 -0.481133 -0.10677 0
M  V30 11 H -3.00041 0.822848 -0.528525 0
M  V30 12 H -2.58229 2.13003 0.418674 0
M  V30 13 H -0.989162 0.789561 1.65838 0
M  V30 14 H 0.0181463 2.25825 0.161188 0
M  V30 15 H -0.586863 1.35825 -1.32787 0
M  V30 16 H 0.0965473 -1.08743 -1.5555 0
M  V30 17 H 0.846452 -1.78321 -0.0460131 0
M  V30 18 H -1.0977 -1.47832 1.09729 0
M  V30 19 H -1.89885 -1.46023 -1.63908 0
M  V30 20 H -2.95704 -1.69895 -0.27418 0
M  V30 21 H 2.84433 -1.33774 0.495152 0
M  V30 22 H 3.38455 -0.814713 -1.15625 0
M  V30 23 H 4.16618 -0.118063 0.306612 0
M  V30 END ATOM
M  V30 BEGIN BOND
M  V30 1 1 1 2
M  V30 2 1 2 3
M  V30 3 1 3 4
M  V30 4 1 4 5
M  V30 5 1 5 6
M  V30 6 1 6 7
M  V30 7 1 4 8
M  V30 8 2 8 9
M  V30 9 1 8 10
M  V30 10 1 6 2
M  V30 11 1 1 11
M  V30 12 1 1 12
M  V30 13 1 2 13 CFG=1
M  V30 14 1 3 14
M  V30 15 1 3 15
M  V30 16 1 5 16
M  V30 17 1 5 17
M  V30 18 1 6 18 CFG=1
M  V30 19 1 7 19
M  V30 20 1 7 20
M  V30 21 1 10 21
M  V30 22 1 10 22
M  V30 23 1 10 23
M  V30 END BOND
M  V30 END CTAB
M  END
