
     RDKit          3D

  0  0  0  0  0  0  0  0  0  0999 V3000
M  V30 BEGIN CTAB
M  V30 COUNTS 61 62 0 0 0
M  V30 BEGIN ATOM
M  V30 1 C -4.70254 -1.19208 1.02645 0 CFG=1
M  V30 2 N -5.62805 -1.18861 2.10506 0
M  V30 3 C -5.54168 -1.2123 -0.256851 0
M  V30 4 C -6.39102 -0.00370079 -0.221881 0
M  V30 5 C -7.63231 -0.1525 0.417935 0
M  V30 6 C -8.48015 0.926722 0.502192 0
M  V30 7 C -8.1315 2.16817 -0.036017 0
M  V30 8 C -6.9198 2.31592 -0.662244 0
M  V30 9 C -6.05783 1.21787 -0.747958 0
M  V30 10 C -3.8701 0.0855612 1.0173 0
M  V30 11 O -4.32144 0.97471 1.81795 0
M  V30 12 N -2.7817 0.227566 0.233165 0
M  V30 13 C -1.66118 0.373919 -0.57405 0
M  V30 14 C -1.41186 -0.947991 -1.30309 0
M  V30 15 C -1.02909 -1.98811 -0.309424 0
M  V30 16 C 0.264567 -1.58878 0.379787 0
M  V30 17 C 1.3378 -1.48533 -0.666695 0
M  V30 18 N 2.59508 -1.11589 -0.0270417 0
M  V30 19 C 3.78045 -0.982891 -0.767168 0
M  V30 20 O 3.74763 -1.20072 -2.01887 0
M  V30 21 C 5.06184 -0.605857 -0.17257 0 CFG=1
M  V30 22 N 6.16656 -1.31611 -0.851587 0
M  V30 23 C 5.2812 0.894965 -0.407708 0
M  V30 24 C 6.56035 1.33815 0.170009 0
M  V30 25 C 7.71016 1.25939 -0.587937 0
M  V30 26 C 8.95462 1.66355 -0.149937 0
M  V30 27 C 9.03711 2.18334 1.14796 0
M  V30 28 C 7.89226 2.26375 1.90821 0
M  V30 29 C 6.66378 1.85479 1.4511 0
M  V30 30 H -4.01239 -2.02125 0.991016 0
M  V30 31 H -5.25047 -0.859191 3.0209 0
M  V30 32 H -6.18271 -2.0722 2.17199 0
M  V30 33 H -4.92286 -1.28427 -1.15628 0
M  V30 34 H -6.17931 -2.10581 -0.197012 0
M  V30 35 H -7.93909 -1.11414 0.849758 0
M  V30 36 H -9.44584 0.779999 1.00779 0
M  V30 37 H -8.82083 3.02589 0.0411061 0
M  V30 38 H -6.62498 3.2721 -1.08923 0
M  V30 39 H -5.12477 1.3488 -1.24462 0
M  V30 40 H -2.5896 1.49613 0.686519 0
M  V30 41 H -0.715142 0.649933 -0.070806 0
M  V30 42 H -1.76177 1.19145 -1.37313 0
M  V30 43 H -2.41316 -1.24955 -1.76342 0
M  V30 44 H -0.707566 -0.889974 -2.11725 0
M  V30 45 H -0.787751 -2.95801 -0.850955 0
M  V30 46 H -1.78565 -2.26837 0.422991 0
M  V30 47 H 0.195931 -0.715161 1.01671 0
M  V30 48 H 0.487152 -2.4455 1.09332 0
M  V30 49 H 1.49088 -2.44421 -1.20877 0
M  V30 50 H 1.05745 -0.711403 -1.41646 0
M  V30 51 H 2.59817 -0.953151 0.991198 0
M  V30 52 H 5.13808 -0.824794 0.893821 0
M  V30 53 H 5.85359 -2.31136 -1.0037 0
M  V30 54 H 7.04476 -1.28679 -0.27861 0
M  V30 55 H 4.42568 1.47243 -0.0462532 0
M  V30 56 H 5.30038 0.990801 -1.52514 0
M  V30 57 H 7.61027 0.842597 -1.60242 0
M  V30 58 H 9.83399 1.58436 -0.779733 0
M  V30 59 H 9.99177 2.4994 1.49765 0
M  V30 60 H 7.97343 2.67623 2.92353 0
M  V30 61 H 5.76917 1.91751 2.04595 0
M  V30 END ATOM
M  V30 BEGIN BOND
M  V30 1 1 1 2
M  V30 2 1 1 3
M  V30 3 1 3 4
M  V30 4 2 4 5
M  V30 5 1 5 6
M  V30 6 2 6 7
M  V30 7 1 7 8
M  V30 8 2 8 9
M  V30 9 1 1 10
M  V30 10 2 10 11
M  V30 11 1 10 12
M  V30 12 1 12 13
M  V30 13 1 13 14
M  V30 14 1 14 15
M  V30 15 1 15 16
M  V30 16 1 16 17
M  V30 17 1 17 18
M  V30 18 1 18 19
M  V30 19 2 19 20
M  V30 20 1 19 21
M  V30 21 1 21 22
M  V30 22 1 21 23
M  V30 23 1 23 24
M  V30 24 2 24 25
M  V30 25 1 25 26
M  V30 26 2 26 27
M  V30 27 1 27 28
M  V30 28 2 28 29
M  V30 29 1 9 4
M  V30 30 1 29 24
M  V30 31 1 1 30 CFG=1
M  V30 32 1 2 31
M  V30 33 1 2 32
M  V30 34 1 3 33
M  V30 35 1 3 34
M  V30 36 1 5 35
M  V30 37 1 6 36
M  V30 38 1 7 37
M  V30 39 1 8 38
M  V30 40 1 9 39
M  V30 41 1 12 40
M  V30 42 1 13 41
M  V30 43 1 13 42
M  V30 44 1 14 43
M  V30 45 1 14 44
M  V30 46 1 15 45
M  V30 47 1 15 46
M  V30 48 1 16 47
M  V30 49 1 16 48
M  V30 50 1 17 49
M  V30 51 1 17 50
M  V30 52 1 18 51
M  V30 53 1 21 52 CFG=1
M  V30 54 1 22 53
M  V30 55 1 22 54
M  V30 56 1 23 55
M  V30 57 1 23 56
M  V30 58 1 25 57
M  V30 59 1 26 58
M  V30 60 1 27 59
M  V30 61 1 28 60
M  V30 62 1 29 61
M  V30 END BOND
M  V30 END CTAB
M  END
