
     RDKit          3D

  0  0  0  0  0  0  0  0  0  0999 V3000
M  V30 BEGIN CTAB
M  V30 COUNTS 28 28 0 0 0
M  V30 BEGIN ATOM
M  V30 1 N 2.77795 0.703666 -0.353243 0
M  V30 2 C 2.04129 0.685856 0.870754 0
M  V30 3 C 0.55982 0.371283 0.665609 0
M  V30 4 C -0.0350233 1.3945 -0.205862 0
M  V30 5 C -1.21467 1.06686 -1.02102 0
M  V30 6 C -2.18794 0.0833216 -0.57004 0
M  V30 7 C -1.95027 -0.596173 0.739699 0
M  V30 8 C -0.833182 -1.60706 0.710231 0
M  V30 9 C 0.457744 -1.03937 0.184499 0
M  V30 10 N 0.662239 -1.22179 -1.2086 0
M  V30 11 H 3.77449 0.485607 -0.127299 0
M  V30 12 H 2.80112 1.63658 -0.83068 0
M  V30 13 H 2.50833 -0.0678908 1.54045 0
M  V30 14 H 2.18247 1.66593 1.36876 0
M  V30 15 H 0.123253 0.390611 1.70602 0
M  V30 16 H -0.291656 2.26166 0.476723 0
M  V30 17 H 0.769012 1.79296 -0.862997 0
M  V30 18 H -1.72907 2.03379 -1.28874 0
M  V30 19 H -0.843964 0.718439 -2.03645 0
M  V30 20 H -2.39752 -0.741859 -1.31744 0
M  V30 21 H -3.21188 0.560241 -0.469233 0
M  V30 22 H -1.89074 0.0863534 1.60073 0
M  V30 23 H -2.88601 -1.20519 0.934224 0
M  V30 24 H -1.11068 -2.54094 0.204494 0
M  V30 25 H -0.666922 -1.88064 1.78755 0
M  V30 26 H 1.28686 -1.6145 0.695175 0
M  V30 27 H 1.46734 -1.85881 -1.45407 0
M  V30 28 H -0.162397 -1.56343 -1.73926 0
M  V30 END ATOM
M  V30 BEGIN BOND
M  V30 1 1 1 2
M  V30 2 1 2 3
M  V30 3 1 3 4
M  V30 4 1 4 5
M  V30 5 1 5 6
M  V30 6 1 6 7
M  V30 7 1 7 8
M  V30 8 1 8 9
M  V30 9 1 9 10
M  V30 10 1 9 3
M  V30 11 1 1 11
M  V30 12 1 1 12
M  V30 13 1 2 13
M  V30 14 1 2 14
M  V30 15 1 3 15
M  V30 16 1 4 16
M  V30 17 1 4 17
M  V30 18 1 5 18
M  V30 19 1 5 19
M  V30 20 1 6 20
M  V30 21 1 6 21
M  V30 22 1 7 22
M  V30 23 1 7 23
M  V30 24 1 8 24
M  V30 25 1 8 25
M  V30 26 1 9 26
M  V30 27 1 10 27
M  V30 28 1 10 28
M  V30 END BOND
M  V30 END CTAB
M  END
