
     RDKit          3D

  0  0  0  0  0  0  0  0  0  0999 V3000
M  V30 BEGIN CTAB
M  V30 COUNTS 43 46 0 0 0
M  V30 BEGIN ATOM
M  V30 1 C -3.5735 4.59406 0.326801 0
M  V30 2 C -3.0485 3.2119 0.131367 0
M  V30 3 C -2.83936 2.61815 -1.08787 0
M  V30 4 C -2.35296 1.32586 -1.19201 0
M  V30 5 C -2.05729 0.591038 -0.0584416 0
M  V30 6 C -2.26583 1.18823 1.18953 0
M  V30 7 C -2.75247 2.47219 1.25256 0
M  V30 8 N -1.57029 -0.728385 -0.0470286 0
M  V30 9 C -0.337437 -1.12718 0.360585 0
M  V30 10 S 0.922834 -0.0964347 1.06067 0
M  V30 11 C 2.40535 -0.885046 1.53737 0
M  V30 12 C 3.6213 -0.456998 0.768718 0
M  V30 13 N 3.66298 0.720411 0.140927 0
M  V30 14 C 4.80635 1.19321 -0.403774 0
M  V30 15 N 4.76246 2.46188 -1.04916 0
M  V30 16 N 5.93574 0.47716 -0.320814 0
M  V30 17 C 5.90562 -0.729835 0.318066 0
M  V30 18 N 4.76211 -1.17767 0.846916 0
M  V30 19 N 7.10126 -1.47757 0.472476 0
M  V30 20 N -0.326207 -2.47317 0.216609 0
M  V30 21 C -1.51334 -2.92805 -0.260398 0
M  V30 22 C -2.28414 -1.79528 -0.420411 0
M  V30 23 C -3.57521 -2.00345 -0.878946 0
M  V30 24 C -4.0447 -3.26372 -1.14702 0
M  V30 25 C -3.23686 -4.37977 -0.970184 0
M  V30 26 C -1.97301 -4.20532 -0.527475 0
M  V30 27 H -3.95685 5.05506 -0.583388 0
M  V30 28 H -2.75963 5.24135 0.773996 0
M  V30 29 H -4.40837 4.56075 1.09045 0
M  V30 30 H -3.06695 3.19086 -1.98221 0
M  V30 31 H -2.20062 0.861387 -2.15111 0
M  V30 32 H -2.04988 0.640804 2.107 0
M  V30 33 H -2.91708 2.9343 2.22541 0
M  V30 34 H 2.61033 -0.933095 2.63782 0
M  V30 35 H 2.33374 -2.01259 1.25122 0
M  V30 36 H 4.01733 2.59316 -1.76059 0
M  V30 37 H 5.42387 3.22224 -0.838421 0
M  V30 38 H 7.10795 -2.47981 0.287449 0
M  V30 39 H 7.95638 -0.986352 0.772952 0
M  V30 40 H -4.23226 -1.14551 -1.02508 0
M  V30 41 H -5.05922 -3.42433 -1.50063 0
M  V30 42 H -3.59433 -5.38847 -1.17953 0
M  V30 43 H -1.33929 -5.05595 -0.384403 0
M  V30 END ATOM
M  V30 BEGIN BOND
M  V30 1 1 1 2
M  V30 2 2 2 3
M  V30 3 1 3 4
M  V30 4 2 4 5
M  V30 5 1 5 6
M  V30 6 2 6 7
M  V30 7 1 5 8
M  V30 8 1 8 9
M  V30 9 1 9 10
M  V30 10 1 10 11
M  V30 11 1 11 12
M  V30 12 2 12 13
M  V30 13 1 13 14
M  V30 14 1 14 15
M  V30 15 2 14 16
M  V30 16 1 16 17
M  V30 17 2 17 18
M  V30 18 1 17 19
M  V30 19 2 9 20
M  V30 20 1 20 21
M  V30 21 2 21 22
M  V30 22 1 22 23
M  V30 23 2 23 24
M  V30 24 1 24 25
M  V30 25 2 25 26
M  V30 26 1 7 2
M  V30 27 1 22 8
M  V30 28 1 18 12
M  V30 29 1 26 21
M  V30 30 1 1 27
M  V30 31 1 1 28
M  V30 32 1 1 29
M  V30 33 1 3 30
M  V30 34 1 4 31
M  V30 35 1 6 32
M  V30 36 1 7 33
M  V30 37 1 11 34
M  V30 38 1 11 35
M  V30 39 1 15 36
M  V30 40 1 15 37
M  V30 41 1 19 38
M  V30 42 1 19 39
M  V30 43 1 23 40
M  V30 44 1 24 41
M  V30 45 1 25 42
M  V30 46 1 26 43
M  V30 END BOND
M  V30 END CTAB
M  END
