
     RDKit          3D

  0  0  0  0  0  0  0  0  0  0999 V3000
M  V30 BEGIN CTAB
M  V30 COUNTS 39 41 0 0 0
M  V30 BEGIN ATOM
M  V30 1 C -3.59226 1.02988 -3.17848 0
M  V30 2 O -2.4085 0.804967 -2.43499 0
M  V30 3 C -2.54971 0.380707 -1.12036 0
M  V30 4 C -1.40011 0.151181 -0.363781 0
M  V30 5 O -0.132371 0.257741 -0.648371 0
M  V30 6 C 0.616795 -0.0635408 0.378841 0
M  V30 7 C -0.254417 -0.405684 1.41099 0
M  V30 8 C -1.53685 -0.270034 0.941537 0
M  V30 9 C -2.79268 -0.465564 1.50335 0
M  V30 10 C -3.94372 -0.247058 0.781003 0
M  V30 11 C -3.78268 0.179289 -0.539381 0
M  V30 12 C -5.27934 -0.426325 1.28922 0
M  V30 13 N -6.41545 -0.172696 0.458134 0
M  V30 14 N -5.49758 -0.813078 2.48427 0
M  V30 15 C 2.08145 -0.0683277 0.44793 0
M  V30 16 C 2.85088 0.289862 -0.637862 0
M  V30 17 C 4.22859 0.283886 -0.568248 0
M  V30 18 C 4.90358 -0.0842326 0.601924 0
M  V30 19 C 4.13925 -0.439372 1.67841 0
M  V30 20 C 2.73731 -0.431045 1.60059 0
M  V30 21 C 6.34248 -0.0740693 0.623723 0
M  V30 22 N 7.09831 0.305017 -0.526985 0
M  V30 23 N 7.0028 -0.398194 1.65621 0
M  V30 24 H -3.37853 1.41966 -4.19163 0
M  V30 25 H -4.07178 0.0209801 -3.30021 0
M  V30 26 H -4.26267 1.68357 -2.60982 0
M  V30 27 H 0.0053971 -0.724396 2.41211 0
M  V30 28 H -2.86079 -0.79525 2.52648 0
M  V30 29 H -4.67881 0.354306 -1.117 0
M  V30 30 H -7.22992 -0.821539 0.390773 0
M  V30 31 H -6.46866 0.695229 -0.12537 0
M  V30 32 H -4.73493 -1.01712 3.14725 0
M  V30 33 H 2.3556 0.583868 -1.57083 0
M  V30 34 H 4.85582 0.559664 -1.40294 0
M  V30 35 H 4.58605 -0.737574 2.62264 0
M  V30 36 H 2.15227 -0.719437 2.47609 0
M  V30 37 H 7.6045 -0.42711 -1.06645 0
M  V30 38 H 7.16006 1.28398 -0.84328 0
M  V30 39 H 6.55064 -0.682143 2.52246 0
M  V30 END ATOM
M  V30 BEGIN BOND
M  V30 1 1 1 2
M  V30 2 1 2 3
M  V30 3 2 3 4
M  V30 4 1 4 5
M  V30 5 1 5 6
M  V30 6 2 6 7
M  V30 7 1 7 8
M  V30 8 2 8 9
M  V30 9 1 9 10
M  V30 10 2 10 11
M  V30 11 1 10 12
M  V30 12 1 12 13
M  V30 13 2 12 14 CFG=2
M  V30 14 1 6 15
M  V30 15 2 15 16
M  V30 16 1 16 17
M  V30 17 2 17 18
M  V30 18 1 18 19
M  V30 19 2 19 20
M  V30 20 1 18 21
M  V30 21 1 21 22
M  V30 22 2 21 23 CFG=2
M  V30 23 1 11 3
M  V30 24 1 20 15
M  V30 25 1 8 4
M  V30 26 1 1 24
M  V30 27 1 1 25
M  V30 28 1 1 26
M  V30 29 1 7 27
M  V30 30 1 9 28
M  V30 31 1 11 29
M  V30 32 1 13 30
M  V30 33 1 13 31
M  V30 34 1 14 32
M  V30 35 1 16 33
M  V30 36 1 17 34
M  V30 37 1 19 35
M  V30 38 1 20 36
M  V30 39 1 22 37
M  V30 40 1 22 38
M  V30 41 1 23 39
M  V30 END BOND
M  V30 END CTAB
M  END
