
     RDKit          3D

  0  0  0  0  0  0  0  0  0  0999 V3000
M  V30 BEGIN CTAB
M  V30 COUNTS 55 57 0 0 0
M  V30 BEGIN ATOM
M  V30 1 N 9.42343 3.38362 -0.236141 0
M  V30 2 C 8.51739 2.30229 -0.0744435 0
M  V30 3 N 8.95011 1.10296 0.39492 0
M  V30 4 C 8.12771 0.0645075 0.560686 0
M  V30 5 N 8.60715 -1.15523 1.05016 0
M  V30 6 C 6.79784 0.204905 0.248375 0
M  V30 7 C 5.8663 -0.795001 0.380957 0
M  V30 8 C 4.53086 -0.660784 0.070996 0
M  V30 9 C 3.60423 -1.81761 0.25375 0
M  V30 10 O 2.27205 -1.45995 0.053136 0
M  V30 11 C 1.29477 -2.43451 0.186408 0
M  V30 12 O 1.62851 -3.60852 0.481061 0
M  V30 13 C -0.110069 -2.14131 -0.0043622 0
M  V30 14 C -1.06644 -3.11743 0.120438 0
M  V30 15 C -2.40261 -2.77547 -0.0765944 0
M  V30 16 C -2.78418 -1.48277 -0.392891 0
M  V30 17 C -1.80594 -0.530456 -0.51043 0
M  V30 18 C -0.473354 -0.858949 -0.316683 0
M  V30 19 C -4.17426 -1.1496 -0.608271 0
M  V30 20 O -4.9668 -2.0823 -0.873202 0
M  V30 21 N -4.60568 0.181973 -0.519476 0
M  V30 22 C -6.03611 0.46018 -0.75447 0 CFG=1
M  V30 23 C -6.67202 0.878965 0.53998 0
M  V30 24 C -8.13014 1.16216 0.386294 0
M  V30 25 C -8.73996 1.52421 1.7214 0
M  V30 26 O -9.54195 0.61875 2.38961 0
M  V30 27 O -8.52237 2.64131 2.22541 0
M  V30 28 C -6.09624 1.52685 -1.75599 0
M  V30 29 O -7.23716 2.03053 -2.33399 0
M  V30 30 O -4.99379 2.05091 -2.14635 0
M  V30 31 C 4.09621 0.560891 -0.405545 0
M  V30 32 C 5.00553 1.61277 -0.559466 0
M  V30 33 C 6.32699 1.42561 -0.235377 0
M  V30 34 N 7.1948 2.436 -0.382963 0
M  V30 35 H 10.4394 3.16284 -0.438849 0
M  V30 36 H 9.15798 4.38571 -0.168817 0
M  V30 37 H 8.46286 -1.41873 2.04191 0
M  V30 38 H 9.11286 -1.813 0.430418 0
M  V30 39 H 6.22338 -1.75286 0.757508 0
M  V30 40 H 3.71263 -2.12679 1.33093 0
M  V30 41 H 3.95152 -2.64432 -0.394631 0
M  V30 42 H -0.79689 -4.13671 0.368619 0
M  V30 43 H -3.18895 -3.52436 0.0153446 0
M  V30 44 H -2.06754 0.487705 -0.758053 0
M  V30 45 H 0.297596 -0.101629 -0.410714 0
M  V30 46 H -3.97639 0.950425 -0.30068 0
M  V30 47 H -6.54257 -0.471033 -1.10843 0
M  V30 48 H -6.14513 1.79887 0.896067 0
M  V30 49 H -6.48048 0.0924618 1.31156 0
M  V30 50 H -8.69505 0.304066 -0.020225 0
M  V30 51 H -8.30817 2.04193 -0.282437 0
M  V30 52 H -9.08503 -0.171066 2.84272 0
M  V30 53 H -7.64542 1.6007 -3.16723 0
M  V30 54 H 3.05372 0.684756 -0.653353 0
M  V30 55 H 4.63484 2.55154 -0.932879 0
M  V30 END ATOM
M  V30 BEGIN BOND
M  V30 1 1 1 2
M  V30 2 2 2 3
M  V30 3 1 3 4
M  V30 4 1 4 5
M  V30 5 2 4 6
M  V30 6 1 6 7
M  V30 7 2 7 8
M  V30 8 1 8 9
M  V30 9 1 9 10
M  V30 10 1 10 11
M  V30 11 2 11 12
M  V30 12 1 11 13
M  V30 13 2 13 14
M  V30 14 1 14 15
M  V30 15 2 15 16
M  V30 16 1 16 17
M  V30 17 2 17 18
M  V30 18 1 16 19
M  V30 19 2 19 20
M  V30 20 1 19 21
M  V30 21 1 21 22
M  V30 22 1 22 23
M  V30 23 1 23 24
M  V30 24 1 24 25
M  V30 25 1 25 26
M  V30 26 2 25 27
M  V30 27 1 22 28
M  V30 28 1 28 29
M  V30 29 2 28 30
M  V30 30 1 8 31
M  V30 31 2 31 32
M  V30 32 1 32 33
M  V30 33 2 33 34
M  V30 34 1 34 2
M  V30 35 1 33 6
M  V30 36 1 18 13
M  V30 37 1 1 35
M  V30 38 1 1 36
M  V30 39 1 5 37
M  V30 40 1 5 38
M  V30 41 1 7 39
M  V30 42 1 9 40
M  V30 43 1 9 41
M  V30 44 1 14 42
M  V30 45 1 15 43
M  V30 46 1 17 44
M  V30 47 1 18 45
M  V30 48 1 21 46
M  V30 49 1 22 47 CFG=3
M  V30 50 1 23 48
M  V30 51 1 23 49
M  V30 52 1 24 50
M  V30 53 1 24 51
M  V30 54 1 26 52
M  V30 55 1 29 53
M  V30 56 1 31 54
M  V30 57 1 32 55
M  V30 END BOND
M  V30 END CTAB
M  END
