
     RDKit          3D

  0  0  0  0  0  0  0  0  0  0999 V3000
M  V30 BEGIN CTAB
M  V30 COUNTS 29 29 0 0 0
M  V30 BEGIN ATOM
M  V30 1 C 4.09633 0.317923 -0.888511 0
M  V30 2 C 4.0421 -0.894347 0.0113129 0
M  V30 3 O 2.99826 -0.707043 0.955325 0
M  V30 4 C 1.68579 -0.531985 0.558161 0
M  V30 5 O 1.4151 -0.539423 -0.666972 0
M  V30 6 C 0.576306 -0.334502 1.52149 0
M  V30 7 C -0.725598 -0.171237 0.848229 0
M  V30 8 C -1.67597 -1.18154 0.798191 0
M  V30 9 C -2.88898 -1.01558 0.165154 0
M  V30 10 N -3.83759 -2.07153 0.133746 0
M  V30 11 C -3.19546 0.181452 -0.446511 0
M  V30 12 C -2.27918 1.18986 -0.41166 0
M  V30 13 C -1.06609 1.01338 0.22556 0
M  V30 14 C -0.13119 2.08349 0.24548 0
M  V30 15 N 0.641769 2.94131 0.252921 0
M  V30 16 N -2.61767 2.41673 -1.05012 0
M  V30 17 H 5.11271 0.782413 -0.848863 0
M  V30 18 H 3.91816 0.0799912 -1.95275 0
M  V30 19 H 3.35984 1.084 -0.597227 0
M  V30 20 H 3.70499 -1.74975 -0.637183 0
M  V30 21 H 4.98954 -1.10203 0.508556 0
M  V30 22 H 0.809931 0.509915 2.21077 0
M  V30 23 H 0.52449 -1.24127 2.1915 0
M  V30 24 H -1.41576 -2.12549 1.28921 0
M  V30 25 H -3.58417 -3.01912 -0.224197 0
M  V30 26 H -4.8219 -1.96037 0.460645 0
M  V30 27 H -4.15737 0.33502 -0.957088 0
M  V30 28 H -2.90339 3.2103 -0.442951 0
M  V30 29 H -2.57499 2.49943 -2.09283 0
M  V30 END ATOM
M  V30 BEGIN BOND
M  V30 1 1 1 2
M  V30 2 1 2 3
M  V30 3 1 3 4
M  V30 4 2 4 5
M  V30 5 1 4 6
M  V30 6 1 6 7
M  V30 7 2 7 8
M  V30 8 1 8 9
M  V30 9 1 9 10
M  V30 10 2 9 11
M  V30 11 1 11 12
M  V30 12 2 12 13
M  V30 13 1 13 14
M  V30 14 3 14 15
M  V30 15 1 12 16
M  V30 16 1 13 7
M  V30 17 1 1 17
M  V30 18 1 1 18
M  V30 19 1 1 19
M  V30 20 1 2 20
M  V30 21 1 2 21
M  V30 22 1 6 22
M  V30 23 1 6 23
M  V30 24 1 8 24
M  V30 25 1 10 25
M  V30 26 1 10 26
M  V30 27 1 11 27
M  V30 28 1 16 28
M  V30 29 1 16 29
M  V30 END BOND
M  V30 END CTAB
M  END
