
     RDKit          3D

  0  0  0  0  0  0  0  0  0  0999 V3000
M  V30 BEGIN CTAB
M  V30 COUNTS 37 38 0 0 0
M  V30 BEGIN ATOM
M  V30 1 N -4.67156 1.92005 -0.281192 0
M  V30 2 C -3.59613 0.993182 -0.528257 0
M  V30 3 C -2.87718 0.655613 0.755442 0
M  V30 4 N -1.79563 -0.258674 0.598468 0
M  V30 5 C -2.1664 -1.59385 0.236637 0
M  V30 6 C -0.989821 -2.49692 0.589255 0
M  V30 7 C 0.273545 -2.01195 -0.0580438 0
M  V30 8 C 0.549464 -0.584595 0.286562 0 CFG=2
M  V30 9 C -0.682186 0.213378 -0.166763 0
M  V30 10 C 1.79474 -0.0680422 -0.277423 0
M  V30 11 C 2.06902 -0.119032 -1.6309 0
M  V30 12 C 3.2427 0.365076 -2.16955 0
M  V30 13 C 4.17017 0.92056 -1.29733 0
M  V30 14 C 3.95629 1.00145 0.0630812 0
M  V30 15 C 2.76125 0.499243 0.539604 0
M  V30 16 N 4.93052 1.58084 0.937967 0
M  V30 17 H -5.56205 1.45435 -0.0364414 0
M  V30 18 H -4.40935 2.70537 0.355228 0
M  V30 19 H -2.84931 1.40264 -1.25347 0
M  V30 20 H -4.04245 0.0869268 -0.986158 0
M  V30 21 H -2.55068 1.58547 1.24599 0
M  V30 22 H -3.63298 0.142316 1.41751 0
M  V30 23 H -3.04098 -1.89334 0.826388 0
M  V30 24 H -2.33527 -1.72044 -0.856836 0
M  V30 25 H -0.822859 -2.50079 1.69989 0
M  V30 26 H -1.19522 -3.54333 0.222765 0
M  V30 27 H 0.142102 -2.0967 -1.15363 0
M  V30 28 H 1.08919 -2.70065 0.287977 0
M  V30 29 H 0.563234 -0.462926 1.40095 0
M  V30 30 H -0.837175 0.0263196 -1.26824 0
M  V30 31 H -0.54277 1.29724 -0.0218513 0
M  V30 32 H 1.34125 -0.556687 -2.32198 0
M  V30 33 H 3.40012 0.297521 -3.23694 0
M  V30 34 H 5.10388 1.30678 -1.72388 0
M  V30 35 H 2.61097 0.573027 1.62673 0
M  V30 36 H 4.75357 2.4652 1.46283 0
M  V30 37 H 5.84799 1.1154 1.06397 0
M  V30 END ATOM
M  V30 BEGIN BOND
M  V30 1 1 1 2
M  V30 2 1 2 3
M  V30 3 1 3 4
M  V30 4 1 4 5
M  V30 5 1 5 6
M  V30 6 1 6 7
M  V30 7 1 7 8
M  V30 8 1 8 9
M  V30 9 1 8 10
M  V30 10 2 10 11
M  V30 11 1 11 12
M  V30 12 2 12 13
M  V30 13 1 13 14
M  V30 14 2 14 15
M  V30 15 1 14 16
M  V30 16 1 9 4
M  V30 17 1 15 10
M  V30 18 1 1 17
M  V30 19 1 1 18
M  V30 20 1 2 19
M  V30 21 1 2 20
M  V30 22 1 3 21
M  V30 23 1 3 22
M  V30 24 1 5 23
M  V30 25 1 5 24
M  V30 26 1 6 25
M  V30 27 1 6 26
M  V30 28 1 7 27
M  V30 29 1 7 28
M  V30 30 1 8 29 CFG=1
M  V30 31 1 9 30
M  V30 32 1 9 31
M  V30 33 1 11 32
M  V30 34 1 12 33
M  V30 35 1 13 34
M  V30 36 1 15 35
M  V30 37 1 16 36
M  V30 38 1 16 37
M  V30 END BOND
M  V30 END CTAB
M  END
