
     RDKit          3D

  0  0  0  0  0  0  0  0  0  0999 V3000
M  V30 BEGIN CTAB
M  V30 COUNTS 17 17 0 0 0
M  V30 BEGIN ATOM
M  V30 1 N -3.14098 -0.986474 -0.395986 0
M  V30 2 N -2.08456 -0.115212 -0.455212 0
M  V30 3 C -0.791211 -0.521358 -0.0455047 0
M  V30 4 O -0.594871 -1.68754 0.37833 0
M  V30 5 C 0.345461 0.390304 -0.100789 0
M  V30 6 N 0.327245 1.68171 -0.527505 0
M  V30 7 N 1.54212 2.19262 -0.434837 0
M  V30 8 C 2.38964 1.27142 0.0481123 0
M  V30 9 C 1.65099 0.130228 0.263704 0
M  V30 10 N 2.10422 -1.14032 0.776668 0
M  V30 11 H -2.9067 -1.83712 0.188952 0
M  V30 12 H -4.04683 -0.586724 -0.130051 0
M  V30 13 H -2.23128 0.850791 -0.802875 0
M  V30 14 H -0.561146 2.12907 -0.864062 0
M  V30 15 H 3.4449 1.35642 0.246076 0
M  V30 16 H 2.94005 -1.55668 0.289645 0
M  V30 17 H 1.61294 -1.57112 1.56534 0
M  V30 END ATOM
M  V30 BEGIN BOND
M  V30 1 1 1 2
M  V30 2 1 2 3
M  V30 3 2 3 4
M  V30 4 1 3 5
M  V30 5 1 5 6
M  V30 6 1 6 7
M  V30 7 2 7 8
M  V30 8 1 8 9
M  V30 9 1 9 10
M  V30 10 2 9 5
M  V30 11 1 1 11
M  V30 12 1 1 12
M  V30 13 1 2 13
M  V30 14 1 6 14
M  V30 15 1 8 15
M  V30 16 1 10 16
M  V30 17 1 10 17
M  V30 END BOND
M  V30 END CTAB
M  END
