
     RDKit          3D

  0  0  0  0  0  0  0  0  0  0999 V3000
M  V30 BEGIN CTAB
M  V30 COUNTS 47 49 0 0 0
M  V30 BEGIN ATOM
M  V30 1 C 7.76022 -1.9078 -0.22002 0
M  V30 2 C 6.55957 -1.57564 -1.04131 0
M  V30 3 O 5.55261 -0.913651 -0.286386 0
M  V30 4 C 4.37184 -0.536863 -0.905576 0
M  V30 5 O 4.24637 -0.803824 -2.12752 0
M  V30 6 C 3.29419 0.144605 -0.199378 0
M  V30 7 C 2.13195 0.505728 -0.845775 0
M  V30 8 C 1.09591 1.15543 -0.187397 0
M  V30 9 C 1.19431 1.4683 1.1612 0
M  V30 10 C 0.115953 2.15448 1.89899 0
M  V30 11 N -1.14306 2.21323 1.1619 0
M  V30 12 C -1.89408 1.06798 0.839497 0
M  V30 13 C -3.0024 1.14613 0.0247864 0
M  V30 14 C -3.42378 2.37649 -0.651354 0
M  V30 15 C -3.76264 -0.00878236 -0.225562 0
M  V30 16 C -3.33508 -1.2017 0.380966 0
M  V30 17 C -2.22744 -1.26386 1.18819 0
M  V30 18 C -1.48405 -0.133783 1.43567 0
M  V30 19 N -4.05153 -2.31904 0.161479 0
M  V30 20 C -5.14984 -2.35181 -0.6033 0
M  V30 21 N -5.83385 -3.57127 -0.774416 0
M  V30 22 N -5.55785 -1.20842 -1.1815 0
M  V30 23 C -4.87592 -0.0309818 -1.00186 0
M  V30 24 N -5.39337 1.10666 -1.62844 0
M  V30 25 C 2.36597 1.09801 1.78916 0
M  V30 26 C 3.39771 0.452776 1.14005 0
M  V30 27 H 8.27809 -0.97006 0.0992594 0
M  V30 28 H 7.54049 -2.4994 0.679487 0
M  V30 29 H 8.47321 -2.45451 -0.86422 0
M  V30 30 H 6.10528 -2.50528 -1.44064 0
M  V30 31 H 6.8676 -0.868586 -1.83869 0
M  V30 32 H 2.06742 0.253134 -1.90857 0
M  V30 33 H 0.212081 1.41201 -0.753964 0
M  V30 34 H 0.446279 3.1682 2.20732 0
M  V30 35 H -0.0981998 1.61222 2.84187 0
M  V30 36 H -1.4906 3.15218 0.890647 0
M  V30 37 H -4.25898 2.92443 -0.233813 0
M  V30 38 H -3.32181 2.36726 -1.76817 0
M  V30 39 H -2.5819 3.12634 -0.468896 0
M  V30 40 H -1.95508 -2.22531 1.62428 0
M  V30 41 H -0.610783 -0.197236 2.08348 0
M  V30 42 H -6.17178 -4.0948 0.045143 0
M  V30 43 H -5.9949 -3.93772 -1.72318 0
M  V30 44 H -5.19375 1.34974 -2.6383 0
M  V30 45 H -6.03942 1.8171 -1.17683 0
M  V30 46 H 2.45648 1.33825 2.85022 0
M  V30 47 H 4.31858 0.169665 1.66342 0
M  V30 END ATOM
M  V30 BEGIN BOND
M  V30 1 1 1 2
M  V30 2 1 2 3
M  V30 3 1 3 4
M  V30 4 2 4 5
M  V30 5 1 4 6
M  V30 6 2 6 7
M  V30 7 1 7 8
M  V30 8 2 8 9
M  V30 9 1 9 10
M  V30 10 1 10 11
M  V30 11 1 11 12
M  V30 12 2 12 13
M  V30 13 1 13 14
M  V30 14 1 13 15
M  V30 15 2 15 16
M  V30 16 1 16 17
M  V30 17 2 17 18
M  V30 18 1 16 19
M  V30 19 2 19 20
M  V30 20 1 20 21
M  V30 21 1 20 22
M  V30 22 2 22 23
M  V30 23 1 23 24
M  V30 24 1 9 25
M  V30 25 2 25 26
M  V30 26 1 26 6
M  V30 27 1 18 12
M  V30 28 1 23 15
M  V30 29 1 1 27
M  V30 30 1 1 28
M  V30 31 1 1 29
M  V30 32 1 2 30
M  V30 33 1 2 31
M  V30 34 1 7 32
M  V30 35 1 8 33
M  V30 36 1 10 34
M  V30 37 1 10 35
M  V30 38 1 11 36
M  V30 39 1 14 37
M  V30 40 1 14 38
M  V30 41 1 14 39
M  V30 42 1 17 40
M  V30 43 1 18 41
M  V30 44 1 21 42
M  V30 45 1 21 43
M  V30 46 1 24 44
M  V30 47 1 24 45
M  V30 48 1 25 46
M  V30 49 1 26 47
M  V30 END BOND
M  V30 END CTAB
M  END
