
     RDKit          3D

  0  0  0  0  0  0  0  0  0  0999 V3000
M  V30 BEGIN CTAB
M  V30 COUNTS 26 26 0 0 0
M  V30 BEGIN ATOM
M  V30 1 C 3.11039 0.0572113 0.14579 0
M  V30 2 N 1.73674 0.134311 -0.217761 0
M  V30 3 C 0.997756 1.20905 0.283458 0
M  V30 4 C -0.323435 0.922887 0.900359 0
M  V30 5 C -1.03228 -0.276138 0.326592 0
M  V30 6 C -0.331878 -0.777945 -0.934866 0
M  V30 7 C 1.0858 -1.09196 -0.452611 0
M  V30 8 N -0.913195 -1.34494 1.29665 0
M  V30 9 C -2.44922 0.00545913 0.100901 0
M  V30 10 S -3.56766 -0.897039 0.865467 0
M  V30 11 N -2.8835 1.05093 -0.772781 0
M  V30 12 H 3.5153 -0.94376 -0.128563 0
M  V30 13 H 3.26362 0.270519 1.22095 0
M  V30 14 H 3.68031 0.834399 -0.438619 0
M  V30 15 H 0.883872 1.98185 -0.53376 0
M  V30 16 H 1.61865 1.74532 1.06124 0
M  V30 17 H -0.234858 0.832865 2.00383 0
M  V30 18 H -0.982588 1.80213 0.725223 0
M  V30 19 H -0.81159 -1.70021 -1.26437 0
M  V30 20 H -0.276994 0.0165204 -1.70469 0
M  V30 21 H 1.64799 -1.67192 -1.20999 0
M  V30 22 H 1.0076 -1.76058 0.439876 0
M  V30 23 H -1.32851 -2.21994 0.93619 0
M  V30 24 H -1.31102 -1.07617 2.21585 0
M  V30 25 H -2.22109 1.74063 -1.18977 0
M  V30 26 H -3.88022 1.15654 -1.02112 0
M  V30 END ATOM
M  V30 BEGIN BOND
M  V30 1 1 1 2
M  V30 2 1 2 3
M  V30 3 1 3 4
M  V30 4 1 4 5
M  V30 5 1 5 6
M  V30 6 1 6 7
M  V30 7 1 5 8
M  V30 8 1 5 9
M  V30 9 2 9 10
M  V30 10 1 9 11
M  V30 11 1 7 2
M  V30 12 1 1 12
M  V30 13 1 1 13
M  V30 14 1 1 14
M  V30 15 1 3 15
M  V30 16 1 3 16
M  V30 17 1 4 17
M  V30 18 1 4 18
M  V30 19 1 6 19
M  V30 20 1 6 20
M  V30 21 1 7 21
M  V30 22 1 7 22
M  V30 23 1 8 23
M  V30 24 1 8 24
M  V30 25 1 11 25
M  V30 26 1 11 26
M  V30 END BOND
M  V30 END CTAB
M  END
