
     RDKit          3D

  0  0  0  0  0  0  0  0  0  0999 V3000
M  V30 BEGIN CTAB
M  V30 COUNTS 24 24 0 0 0
M  V30 BEGIN ATOM
M  V30 1 N 5.32534 -0.0619789 0.482668 0
M  V30 2 C 3.95456 0.179878 0.266047 0
M  V30 3 S 3.47431 1.73966 0.217319 0
M  V30 4 N 3.05502 -0.878097 0.10149 0
M  V30 5 N 1.67959 -0.728781 -0.117579 0
M  V30 6 C 0.897608 -0.0748288 0.631552 0
M  V30 7 C -0.54145 0.0778664 0.396927 0
M  V30 8 C -1.1209 -0.523897 -0.715809 0
M  V30 9 O -0.277063 -1.24599 -1.54937 0
M  V30 10 C -2.47067 -0.396418 -0.960043 0
M  V30 11 C -3.30338 0.323619 -0.12601 0
M  V30 12 N -4.69021 0.454347 -0.377319 0
M  V30 13 C -2.707 0.92229 0.987494 0
M  V30 14 C -1.35603 0.79404 1.23094 0
M  V30 15 H 5.88914 -0.534674 -0.238103 0
M  V30 16 H 5.76601 0.234559 1.36449 0
M  V30 17 H 3.39372 -1.87017 0.137841 0
M  V30 18 H 1.31812 0.403424 1.50288 0
M  V30 19 H -0.69591 -1.68842 -2.36513 0
M  V30 20 H -2.87687 -0.892313 -1.85377 0
M  V30 21 H -5.0316 0.646251 -1.33669 0
M  V30 22 H -5.37978 0.361262 0.386021 0
M  V30 23 H -3.38243 1.48178 1.6263 0
M  V30 24 H -0.920119 1.27659 2.11386 0
M  V30 END ATOM
M  V30 BEGIN BOND
M  V30 1 1 1 2
M  V30 2 2 2 3
M  V30 3 1 2 4
M  V30 4 1 4 5
M  V30 5 2 5 6
M  V30 6 1 6 7
M  V30 7 2 7 8
M  V30 8 1 8 9
M  V30 9 1 8 10
M  V30 10 2 10 11
M  V30 11 1 11 12
M  V30 12 1 11 13
M  V30 13 2 13 14
M  V30 14 1 14 7
M  V30 15 1 1 15
M  V30 16 1 1 16
M  V30 17 1 4 17
M  V30 18 1 6 18
M  V30 19 1 9 19
M  V30 20 1 10 20
M  V30 21 1 12 21
M  V30 22 1 12 22
M  V30 23 1 13 23
M  V30 24 1 14 24
M  V30 END BOND
M  V30 END CTAB
M  END
