
     RDKit          3D

  0  0  0  0  0  0  0  0  0  0999 V3000
M  V30 BEGIN CTAB
M  V30 COUNTS 37 38 0 0 0
M  V30 BEGIN ATOM
M  V30 1 N -7.01258 -0.365123 0.577734 0
M  V30 2 C -5.75702 0.0307649 1.11329 0
M  V30 3 N -5.73429 0.410115 2.32959 0
M  V30 4 C -4.54159 0.00873093 0.317946 0
M  V30 5 C -4.64776 -0.420842 -1.01181 0
M  V30 6 C -3.53226 -0.4562 -1.79075 0
M  V30 7 C -2.29962 -0.0834704 -1.31613 0
M  V30 8 N -1.18172 -0.150198 -2.19823 0
M  V30 9 N 0.106057 0.210726 -1.7944 0
M  V30 10 C 0.760345 -0.557873 -1.01884 0
M  V30 11 C 2.11865 -0.254085 -0.546817 0
M  V30 12 C 2.77355 -1.12552 0.290669 0
M  V30 13 C 4.0566 -0.868395 0.754385 0
M  V30 14 C 4.71277 0.294793 0.37335 0
M  V30 15 C 4.06962 1.17427 -0.463303 0
M  V30 16 C 2.7724 0.891019 -0.918182 0
M  V30 17 C 6.04967 0.573847 0.849818 0
M  V30 18 N 6.69882 -0.350562 1.71618 0
M  V30 19 N 6.6908 1.6302 0.525605 0
M  V30 20 C -2.18472 0.336275 -0.0234439 0
M  V30 21 C -3.30108 0.377542 0.775158 0
M  V30 22 H -7.87101 0.24265 0.637564 0
M  V30 23 H -7.12712 -1.28373 0.100926 0
M  V30 24 H -4.91927 0.719837 2.84822 0
M  V30 25 H -5.61748 -0.719316 -1.4022 0
M  V30 26 H -3.65776 -0.801583 -2.836 0
M  V30 27 H -1.28645 -0.473289 -3.18381 0
M  V30 28 H 0.28975 -1.47123 -0.698185 0
M  V30 29 H 2.32003 -2.04854 0.625379 0
M  V30 30 H 4.55605 -1.56641 1.41312 0
M  V30 31 H 4.52447 2.09637 -0.796823 0
M  V30 32 H 2.30414 1.6187 -1.57967 0
M  V30 33 H 7.33061 0.0182399 2.4605 0
M  V30 34 H 6.57704 -1.38568 1.64782 0
M  V30 35 H 6.37794 2.39176 -0.0812969 0
M  V30 36 H -1.20734 0.639102 0.376486 0
M  V30 37 H -3.21024 0.717108 1.8222 0
M  V30 END ATOM
M  V30 BEGIN BOND
M  V30 1 1 1 2
M  V30 2 2 2 3 CFG=2
M  V30 3 1 2 4
M  V30 4 2 4 5
M  V30 5 1 5 6
M  V30 6 2 6 7
M  V30 7 1 7 8
M  V30 8 1 8 9
M  V30 9 2 9 10
M  V30 10 1 10 11
M  V30 11 2 11 12
M  V30 12 1 12 13
M  V30 13 2 13 14
M  V30 14 1 14 15
M  V30 15 2 15 16
M  V30 16 1 14 17
M  V30 17 1 17 18
M  V30 18 2 17 19 CFG=2
M  V30 19 1 7 20
M  V30 20 2 20 21
M  V30 21 1 21 4
M  V30 22 1 16 11
M  V30 23 1 1 22
M  V30 24 1 1 23
M  V30 25 1 3 24
M  V30 26 1 5 25
M  V30 27 1 6 26
M  V30 28 1 8 27
M  V30 29 1 10 28
M  V30 30 1 12 29
M  V30 31 1 13 30
M  V30 32 1 15 31
M  V30 33 1 16 32
M  V30 34 1 18 33
M  V30 35 1 18 34
M  V30 36 1 19 35
M  V30 37 1 20 36
M  V30 38 1 21 37
M  V30 END BOND
M  V30 END CTAB
M  END
