
     RDKit          3D

  0  0  0  0  0  0  0  0  0  0999 V3000
M  V30 BEGIN CTAB
M  V30 COUNTS 24 25 0 0 0
M  V30 BEGIN ATOM
M  V30 1 C 2.77225 -1.46069 0.928785 0
M  V30 2 C 1.47196 -0.847663 0.531832 0
M  V30 3 N 0.291692 -1.44549 0.778914 0
M  V30 4 C -0.882421 -0.871059 0.409447 0
M  V30 5 C -0.923822 0.339418 -0.229929 0
M  V30 6 C -2.14802 0.871114 -0.579783 0
M  V30 7 C -3.31076 0.175097 -0.280043 0
M  V30 8 C -3.27848 -1.04565 0.364213 0
M  V30 9 C -2.05253 -1.56447 0.707394 0
M  V30 10 C 0.270322 0.991403 -0.504712 0
M  V30 11 N 0.249744 2.24024 -1.1631 0
M  V30 12 C 1.44336 0.369575 -0.11037 0
M  V30 13 N 2.68624 1.02706 -0.385261 0
M  V30 14 H 3.36119 -0.795959 1.58594 0
M  V30 15 H 2.55991 -2.37558 1.53467 0
M  V30 16 H 3.34781 -1.81827 0.0473138 0
M  V30 17 H -2.18549 1.83051 -1.08678 0
M  V30 18 H -4.27303 0.619188 -0.568808 0
M  V30 19 H -4.18208 -1.59956 0.603988 0
M  V30 20 H -1.97909 -2.52958 1.21948 0
M  V30 21 H -0.425222 2.44293 -1.91596 0
M  V30 22 H 0.928781 2.96491 -0.880567 0
M  V30 23 H 3.23403 0.643766 -1.18758 0
M  V30 24 H 3.02366 1.83876 0.180917 0
M  V30 END ATOM
M  V30 BEGIN BOND
M  V30 1 1 1 2
M  V30 2 2 2 3
M  V30 3 1 3 4
M  V30 4 2 4 5
M  V30 5 1 5 6
M  V30 6 2 6 7
M  V30 7 1 7 8
M  V30 8 2 8 9
M  V30 9 1 5 10
M  V30 10 1 10 11
M  V30 11 2 10 12
M  V30 12 1 12 13
M  V30 13 1 12 2
M  V30 14 1 9 4
M  V30 15 1 1 14
M  V30 16 1 1 15
M  V30 17 1 1 16
M  V30 18 1 6 17
M  V30 19 1 7 18
M  V30 20 1 8 19
M  V30 21 1 9 20
M  V30 22 1 11 21
M  V30 23 1 11 22
M  V30 24 1 13 23
M  V30 25 1 13 24
M  V30 END BOND
M  V30 END CTAB
M  END
