
     RDKit          3D

  0  0  0  0  0  0  0  0  0  0999 V3000
M  V30 BEGIN CTAB
M  V30 COUNTS 28 28 0 0 0
M  V30 BEGIN ATOM
M  V30 1 N 5.39656 -0.277853 0.54548 0
M  V30 2 C 4.08428 0.164327 0.227377 0
M  V30 3 N 3.71472 1.18761 -0.530765 0
M  V30 4 C 2.46285 1.44705 -0.713406 0
M  V30 5 C 1.54425 0.632671 -0.100025 0
M  V30 6 S 2.55234 -0.473497 0.714506 0
M  V30 7 C 0.0450394 0.752219 -0.176747 0
M  V30 8 C -0.550448 -0.54865 0.308154 0
M  V30 9 C -2.03707 -0.470514 0.247476 0
M  V30 10 N -2.41298 -0.228709 -1.14124 0
M  V30 11 C -2.66399 -1.80978 0.625227 0
M  V30 12 C -2.64937 0.573296 1.11227 0
M  V30 13 O -0.263255 0.973242 -1.51655 0
M  V30 14 H 5.71352 -1.19023 0.196981 0
M  V30 15 H 6.00535 0.319233 1.11662 0
M  V30 16 H 2.13014 2.30536 -1.34903 0
M  V30 17 H -0.227869 1.62037 0.415626 0
M  V30 18 H -0.217432 -1.3358 -0.394461 0
M  V30 19 H -0.144007 -0.767735 1.3026 0
M  V30 20 H -3.00483 -0.967961 -1.53888 0
M  V30 21 H -2.77574 0.733423 -1.29008 0
M  V30 22 H -3.77562 -1.66597 0.49349 0
M  V30 23 H -2.37117 -2.59752 -0.0918151 0
M  V30 24 H -2.4996 -2.0732 1.67314 0
M  V30 25 H -2.72851 0.167702 2.1511 0
M  V30 26 H -3.70566 0.73469 0.755169 0
M  V30 27 H -2.15381 1.55575 1.0844 0
M  V30 28 H 0.532311 1.24048 -2.03556 0
M  V30 END ATOM
M  V30 BEGIN BOND
M  V30 1 1 1 2
M  V30 2 2 2 3
M  V30 3 1 3 4
M  V30 4 2 4 5
M  V30 5 1 5 6
M  V30 6 1 5 7
M  V30 7 1 7 8
M  V30 8 1 8 9
M  V30 9 1 9 10
M  V30 10 1 9 11
M  V30 11 1 9 12
M  V30 12 1 7 13
M  V30 13 1 6 2
M  V30 14 1 1 14
M  V30 15 1 1 15
M  V30 16 1 4 16
M  V30 17 1 7 17
M  V30 18 1 8 18
M  V30 19 1 8 19
M  V30 20 1 10 20
M  V30 21 1 10 21
M  V30 22 1 11 22
M  V30 23 1 11 23
M  V30 24 1 11 24
M  V30 25 1 12 25
M  V30 26 1 12 26
M  V30 27 1 12 27
M  V30 28 1 13 28
M  V30 END BOND
M  V30 END CTAB
M  END
