
     RDKit          3D

  0  0  0  0  0  0  0  0  0  0999 V3000
M  V30 BEGIN CTAB
M  V30 COUNTS 25 24 0 0 0
M  V30 BEGIN ATOM
M  V30 1 C 3.47533 0.0733183 -0.489225 0
M  V30 2 O 2.24912 -0.495775 -0.195905 0
M  V30 3 C 1.1826 0.349606 -0.391953 0
M  V30 4 C -0.0875743 -0.380471 -0.0409487 0
M  V30 5 C -1.29563 0.449051 -0.219971 0
M  V30 6 N -1.25522 1.67174 -0.63403 0
M  V30 7 N -2.44745 2.3849 -0.775256 0
M  V30 8 N -2.54215 -0.16879 0.0904442 0
M  V30 9 C -0.266076 -1.62264 -0.896331 0
M  V30 10 C -0.0451774 -0.786057 1.42423 0
M  V30 11 H 3.53209 0.395364 -1.53975 0
M  V30 12 H 3.78854 0.847134 0.22672 0
M  V30 13 H 4.23427 -0.756316 -0.382871 0
M  V30 14 H 1.13472 0.589181 -1.47553 0
M  V30 15 H 1.22984 1.25941 0.236285 0
M  V30 16 H -3.26816 2.20392 -0.153425 0
M  V30 17 H -2.57638 3.12885 -1.50415 0
M  V30 18 H -3.14943 -0.611725 -0.626456 0
M  V30 19 H -2.81325 -0.146308 1.11748 0
M  V30 20 H -0.929062 -1.39204 -1.77912 0
M  V30 21 H -0.78355 -2.43321 -0.350705 0
M  V30 22 H 0.706312 -1.93481 -1.32378 0
M  V30 23 H -1.02174 -1.1556 1.77641 0
M  V30 24 H 0.20856 0.0978897 2.03382 0
M  V30 25 H 0.739456 -1.56662 1.56763 0
M  V30 END ATOM
M  V30 BEGIN BOND
M  V30 1 1 1 2
M  V30 2 1 2 3
M  V30 3 1 3 4
M  V30 4 1 4 5
M  V30 5 2 5 6 CFG=2
M  V30 6 1 6 7
M  V30 7 1 5 8
M  V30 8 1 4 9
M  V30 9 1 4 10
M  V30 10 1 1 11
M  V30 11 1 1 12
M  V30 12 1 1 13
M  V30 13 1 3 14
M  V30 14 1 3 15
M  V30 15 1 7 16
M  V30 16 1 7 17
M  V30 17 1 8 18
M  V30 18 1 8 19
M  V30 19 1 9 20
M  V30 20 1 9 21
M  V30 21 1 9 22
M  V30 22 1 10 23
M  V30 23 1 10 24
M  V30 24 1 10 25
M  V30 END BOND
M  V30 END CTAB
M  END
