
     RDKit          3D

  0  0  0  0  0  0  0  0  0  0999 V3000
M  V30 BEGIN CTAB
M  V30 COUNTS 48 51 0 0 0
M  V30 BEGIN ATOM
M  V30 1 N -2.14857 -2.58756 3.04987 0
M  V30 2 C -1.98711 -1.43926 2.23079 0
M  V30 3 N -0.798176 -0.826107 2.19488 0
M  V30 4 C -0.514181 0.269716 1.4605 0
M  V30 5 N 0.772454 0.838895 1.52173 0
M  V30 6 C 1.21118 1.96058 0.734064 0
M  V30 7 C 1.38808 1.55683 -0.71154 0
M  V30 8 C 2.41269 0.475054 -0.837739 0
M  V30 9 N 2.21883 -0.850477 -0.796216 0
M  V30 10 C 3.40987 -1.48755 -0.949838 0
M  V30 11 C 4.36958 -0.502835 -1.09093 0
M  V30 12 N 3.71905 0.663902 -1.0165 0
M  V30 13 C 4.39027 1.95531 -1.12204 0
M  V30 14 C 5.69849 -0.852349 -1.26645 0
M  V30 15 C 6.08085 -2.17024 -1.30285 0
M  V30 16 C 5.09266 -3.13289 -1.15818 0
M  V30 17 C 3.76621 -2.82331 -0.982528 0
M  V30 18 C -1.56596 0.765972 0.699017 0
M  V30 19 C -2.80461 0.160457 0.710605 0
M  V30 20 N -2.99587 -0.92634 1.47144 0
M  V30 21 C -3.90269 0.688869 -0.0931947 0
M  V30 22 C -4.62587 -0.35958 -0.913295 0
M  V30 23 C -5.91672 0.341888 -0.559819 0
M  V30 24 C -5.20695 0.909906 0.647413 0
M  V30 25 N -6.21976 1.35359 -1.55178 0
M  V30 26 H -2.56034 -2.44798 3.9962 0
M  V30 27 H -1.88376 -3.55266 2.76726 0
M  V30 28 H 1.46936 0.427298 2.18236 0
M  V30 29 H 2.19474 2.35148 1.10282 0
M  V30 30 H 0.430946 2.77699 0.794973 0
M  V30 31 H 1.74945 2.43226 -1.28619 0
M  V30 32 H 0.467805 1.14028 -1.14926 0
M  V30 33 H 5.37235 1.85384 -1.64702 0
M  V30 34 H 4.64612 2.34337 -0.0975303 0
M  V30 35 H 3.74927 2.64978 -1.68255 0
M  V30 36 H 6.42933 -0.0556549 -1.3744 0
M  V30 37 H 7.123 -2.42822 -1.4407 0
M  V30 38 H 5.38464 -4.19146 -1.18537 0
M  V30 39 H 2.9972 -3.57018 -0.870013 0
M  V30 40 H -1.41411 1.65068 0.096254 0
M  V30 41 H -3.66481 1.59409 -0.701074 0
M  V30 42 H -4.55214 -1.35692 -0.410415 0
M  V30 43 H -4.359 -0.365357 -1.98316 0
M  V30 44 H -6.76138 -0.336536 -0.323194 0
M  V30 45 H -5.30792 0.312593 1.57634 0
M  V30 46 H -5.444 1.97519 0.870706 0
M  V30 47 H -5.35301 1.87854 -1.79549 0
M  V30 48 H -6.55745 0.936126 -2.44722 0
M  V30 END ATOM
M  V30 BEGIN BOND
M  V30 1 1 1 2
M  V30 2 2 2 3
M  V30 3 1 3 4
M  V30 4 1 4 5
M  V30 5 1 5 6
M  V30 6 1 6 7
M  V30 7 1 7 8
M  V30 8 2 8 9
M  V30 9 1 9 10
M  V30 10 2 10 11
M  V30 11 1 11 12
M  V30 12 1 12 13
M  V30 13 1 11 14
M  V30 14 2 14 15
M  V30 15 1 15 16
M  V30 16 2 16 17
M  V30 17 2 4 18
M  V30 18 1 18 19
M  V30 19 2 19 20
M  V30 20 1 19 21
M  V30 21 1 21 22
M  V30 22 1 22 23
M  V30 23 1 23 24
M  V30 24 1 23 25
M  V30 25 1 20 2
M  V30 26 1 24 21
M  V30 27 1 12 8
M  V30 28 1 17 10
M  V30 29 1 1 26
M  V30 30 1 1 27
M  V30 31 1 5 28
M  V30 32 1 6 29
M  V30 33 1 6 30
M  V30 34 1 7 31
M  V30 35 1 7 32
M  V30 36 1 13 33
M  V30 37 1 13 34
M  V30 38 1 13 35
M  V30 39 1 14 36
M  V30 40 1 15 37
M  V30 41 1 16 38
M  V30 42 1 17 39
M  V30 43 1 18 40
M  V30 44 1 21 41
M  V30 45 1 22 42
M  V30 46 1 22 43
M  V30 47 1 23 44
M  V30 48 1 24 45
M  V30 49 1 24 46
M  V30 50 1 25 47
M  V30 51 1 25 48
M  V30 END BOND
M  V30 END CTAB
M  END
