
     RDKit          3D

  0  0  0  0  0  0  0  0  0  0999 V3000
M  V30 BEGIN CTAB
M  V30 COUNTS 41 42 0 0 0
M  V30 BEGIN ATOM
M  V30 1 C -1.79323 3.10461 0.710904 0
M  V30 2 C -1.42881 1.8719 1.51785 0
M  V30 3 N -1.51229 0.701995 0.630576 0
M  V30 4 C -2.80131 0.0392724 0.544966 0
M  V30 5 C -3.5329 0.230541 -0.719738 0
M  V30 6 C -3.96111 -1.03336 -1.38079 0
M  V30 7 S -4.03163 -2.16358 -0.0156913 0
M  V30 8 O -5.39394 -2.1541 0.586166 0
M  V30 9 O -3.58843 -3.53946 -0.421408 0
M  V30 10 C -2.82161 -1.36548 1.01458 0
M  V30 11 C -0.343125 0.371024 -0.0652857 0
M  V30 12 O 0.670994 1.1533 0.107834 0
M  V30 13 C -0.101734 -0.753158 -0.973732 0
M  V30 14 S 1.06129 -1.9671 -0.271162 0
M  V30 15 C 2.6999 -1.21505 -0.126442 0
M  V30 16 N 3.57668 -1.27692 -1.1358 0
M  V30 17 C 4.80542 -0.739458 -1.09875 0
M  V30 18 N 5.71454 -0.81995 -2.18062 0
M  V30 19 C 5.20163 -0.0765862 0.0533708 0
M  V30 20 C 4.30376 -0.0115277 1.09141 0
M  V30 21 N 3.09331 -0.571466 0.98445 0
M  V30 22 N 4.69796 0.672761 2.2732 0
M  V30 23 H -2.87163 3.20387 0.542357 0
M  V30 24 H -1.4107 4.04771 1.16133 0
M  V30 25 H -1.30318 3.0567 -0.291877 0
M  V30 26 H -2.05267 1.75967 2.41972 0
M  V30 27 H -0.386601 2.02461 1.85903 0
M  V30 28 H -3.44214 0.606634 1.32477 0
M  V30 29 H -2.87991 0.826469 -1.41273 0
M  V30 30 H -4.48501 0.814976 -0.530218 0
M  V30 31 H -4.9631 -0.899235 -1.85187 0
M  V30 32 H -3.21995 -1.39058 -2.14964 0
M  V30 33 H -3.14257 -1.4942 2.07408 0
M  V30 34 H -1.87651 -1.90406 0.911536 0
M  V30 35 H -0.953303 -1.31195 -1.32429 0
M  V30 36 H 0.421593 -0.353484 -1.89463 0
M  V30 37 H 6.71666 -0.525804 -2.07323 0
M  V30 38 H 5.42056 -1.17169 -3.11486 0
M  V30 39 H 6.1941 0.365594 0.101616 0
M  V30 40 H 5.60228 1.20052 2.31866 0
M  V30 41 H 4.11671 0.686046 3.14345 0
M  V30 END ATOM
M  V30 BEGIN BOND
M  V30 1 1 1 2
M  V30 2 1 2 3
M  V30 3 1 3 4
M  V30 4 1 4 5
M  V30 5 1 5 6
M  V30 6 1 6 7
M  V30 7 2 7 8
M  V30 8 2 7 9
M  V30 9 1 7 10
M  V30 10 1 3 11
M  V30 11 2 11 12
M  V30 12 1 11 13
M  V30 13 1 13 14
M  V30 14 1 14 15
M  V30 15 2 15 16
M  V30 16 1 16 17
M  V30 17 1 17 18
M  V30 18 2 17 19
M  V30 19 1 19 20
M  V30 20 2 20 21
M  V30 21 1 20 22
M  V30 22 1 10 4
M  V30 23 1 21 15
M  V30 24 1 1 23
M  V30 25 1 1 24
M  V30 26 1 1 25
M  V30 27 1 2 26
M  V30 28 1 2 27
M  V30 29 1 4 28
M  V30 30 1 5 29
M  V30 31 1 5 30
M  V30 32 1 6 31
M  V30 33 1 6 32
M  V30 34 1 10 33
M  V30 35 1 10 34
M  V30 36 1 13 35
M  V30 37 1 13 36
M  V30 38 1 18 37
M  V30 39 1 18 38
M  V30 40 1 19 39
M  V30 41 1 22 40
M  V30 42 1 22 41
M  V30 END BOND
M  V30 END CTAB
M  END
