
     RDKit          3D

  0  0  0  0  0  0  0  0  0  0999 V3000
M  V30 BEGIN CTAB
M  V30 COUNTS 66 70 0 0 0
M  V30 BEGIN ATOM
M  V30 1 O -9.32719 0.55806 0.348642 0
M  V30 2 C -9.27307 -0.530497 -0.49012 0
M  V30 3 C -8.12165 -1.46114 -0.180332 0
M  V30 4 N -6.90132 -0.778688 -0.307683 0
M  V30 5 C -6.54673 0.221099 0.604389 0
M  V30 6 C -5.1595 0.223748 1.09503 0
M  V30 7 N -4.17251 -0.437589 0.249024 0
M  V30 8 C -4.60951 -1.63504 -0.430908 0
M  V30 9 C -5.90122 -1.28654 -1.15521 0
M  V30 10 C -2.86618 0.132715 0.124735 0
M  V30 11 N -2.83216 1.46403 -0.0772649 0
M  V30 12 C -1.65734 2.10622 -0.226318 0
M  V30 13 N -1.57157 3.50622 -0.437445 0
M  V30 14 C -0.51436 1.3511 -0.163215 0
M  V30 15 C -0.51576 -0.0366082 0.0462934 0
M  V30 16 C -1.71604 -0.656294 0.193349 0
M  V30 17 C -1.81563 -2.06302 0.435481 0
M  V30 18 N -1.94017 -3.22501 0.647197 0
M  V30 19 C 0.681047 -0.76173 0.102611 0
M  V30 20 C 1.00689 -2.17082 0.304317 0
M  V30 21 C 2.52133 -2.18268 0.232921 0
M  V30 22 O 3.09309 -3.30311 0.371492 0
M  V30 23 N 3.01368 -0.876178 0.0135027 0
M  V30 24 C 1.85507 -0.0550919 -0.0567704 0
M  V30 25 N 1.78602 1.27246 -0.253531 0
M  V30 26 C 0.691203 1.99797 -0.314202 0
M  V30 27 N 0.801742 3.41799 -0.53778 0
M  V30 28 C 4.39444 -0.533069 -0.106741 0
M  V30 29 C 4.81647 0.73582 -0.443887 0
M  V30 30 C 6.18445 1.03021 -0.561043 0
M  V30 31 C 7.15461 0.0835801 -0.348566 0
M  V30 32 C 6.74574 -1.17216 -0.0150412 0
M  V30 33 C 5.38616 -1.4734 0.103688 0
M  V30 34 C 8.59133 0.457233 -0.503294 0
M  V30 35 C 9.51827 -0.622223 -0.0432694 0
M  V30 36 C 8.86945 1.67429 0.40155 0
M  V30 37 H -9.52612 1.41135 -0.111826 0
M  V30 38 H -9.1067 -0.12794 -1.52872 0
M  V30 39 H -10.2356 -1.08101 -0.563659 0
M  V30 40 H -8.33272 -1.91818 0.810049 0
M  V30 41 H -8.14753 -2.28553 -0.941122 0
M  V30 42 H -7.21761 0.151349 1.51115 0
M  V30 43 H -6.80685 1.21942 0.153895 0
M  V30 44 H -4.83302 1.29818 1.21029 0
M  V30 45 H -5.0908 -0.200929 2.12713 0
M  V30 46 H -4.80873 -2.43186 0.310355 0
M  V30 47 H -3.9122 -1.98132 -1.22382 0
M  V30 48 H -5.65198 -0.515963 -1.92395 0
M  V30 49 H -6.24288 -2.20398 -1.67291 0
M  V30 50 H -1.49001 4.1541 0.39292 0
M  V30 51 H -1.58403 3.97044 -1.35821 0
M  V30 52 H 0.724465 -2.85383 -0.497443 0
M  V30 53 H 0.83434 -2.52744 1.3415 0
M  V30 54 H 0.885655 4.00921 0.312589 0
M  V30 55 H 0.799783 3.83864 -1.47341 0
M  V30 56 H 4.09729 1.50091 -0.618566 0
M  V30 57 H 6.46932 2.04124 -0.823521 0
M  V30 58 H 7.48986 -1.93821 0.150595 0
M  V30 59 H 5.16732 -2.50085 0.379122 0
M  V30 60 H 8.84009 0.798736 -1.51421 0
M  V30 61 H 9.13535 -1.08296 0.910476 0
M  V30 62 H 10.51 -0.164231 0.23731 0
M  V30 63 H 9.63546 -1.42749 -0.790511 0
M  V30 64 H 8.65084 2.57164 -0.216737 0
M  V30 65 H 9.93195 1.63778 0.713617 0
M  V30 66 H 8.14601 1.66686 1.22228 0
M  V30 END ATOM
M  V30 BEGIN BOND
M  V30 1 1 1 2
M  V30 2 1 2 3
M  V30 3 1 3 4
M  V30 4 1 4 5
M  V30 5 1 5 6
M  V30 6 1 6 7
M  V30 7 1 7 8
M  V30 8 1 8 9
M  V30 9 1 7 10
M  V30 10 2 10 11
M  V30 11 1 11 12
M  V30 12 1 12 13
M  V30 13 2 12 14
M  V30 14 1 14 15
M  V30 15 2 15 16
M  V30 16 1 16 17
M  V30 17 3 17 18
M  V30 18 1 15 19
M  V30 19 1 19 20
M  V30 20 1 20 21
M  V30 21 2 21 22
M  V30 22 1 21 23
M  V30 23 1 23 24
M  V30 24 1 24 25
M  V30 25 2 25 26
M  V30 26 1 26 27
M  V30 27 1 23 28
M  V30 28 2 28 29
M  V30 29 1 29 30
M  V30 30 2 30 31
M  V30 31 1 31 32
M  V30 32 2 32 33
M  V30 33 1 31 34
M  V30 34 1 34 35
M  V30 35 1 34 36
M  V30 36 1 9 4
M  V30 37 1 16 10
M  V30 38 2 24 19
M  V30 39 1 33 28
M  V30 40 1 26 14
M  V30 41 1 1 37
M  V30 42 1 2 38
M  V30 43 1 2 39
M  V30 44 1 3 40
M  V30 45 1 3 41
M  V30 46 1 5 42
M  V30 47 1 5 43
M  V30 48 1 6 44
M  V30 49 1 6 45
M  V30 50 1 8 46
M  V30 51 1 8 47
M  V30 52 1 9 48
M  V30 53 1 9 49
M  V30 54 1 13 50
M  V30 55 1 13 51
M  V30 56 1 20 52
M  V30 57 1 20 53
M  V30 58 1 27 54
M  V30 59 1 27 55
M  V30 60 1 29 56
M  V30 61 1 30 57
M  V30 62 1 32 58
M  V30 63 1 33 59
M  V30 64 1 34 60
M  V30 65 1 35 61
M  V30 66 1 35 62
M  V30 67 1 35 63
M  V30 68 1 36 64
M  V30 69 1 36 65
M  V30 70 1 36 66
M  V30 END BOND
M  V30 END CTAB
M  END
