
     RDKit          3D

  0  0  0  0  0  0  0  0  0  0999 V3000
M  V30 BEGIN CTAB
M  V30 COUNTS 32 33 0 0 0
M  V30 BEGIN ATOM
M  V30 1 N 1.1473 -1.1477 1.24307 0
M  V30 2 C 1.76028 -0.0473721 0.589792 0
M  V30 3 N 1.07885 0.988006 0.185698 0
M  V30 4 N -0.297856 1.07909 0.370585 0
M  V30 5 C -1.22062 0.239786 -0.274221 0
M  V30 6 O -0.751389 -0.638176 -1.06032 0
M  V30 7 C -2.66 0.333741 -0.08204 0
M  V30 8 C -3.50197 -0.536683 -0.759697 0
M  V30 9 N -2.95159 -1.52734 -1.64827 0
M  V30 10 C -4.87255 -0.497006 -0.619276 0
M  V30 11 C -5.384 0.457512 0.235388 0
M  V30 12 C -4.58624 1.34318 0.929494 0
M  V30 13 C -3.2187 1.25946 0.751712 0
M  V30 14 C 3.20886 -0.083945 0.365672 0
M  V30 15 N 3.93741 -1.13244 0.768424 0
M  V30 16 C 5.26458 -1.24393 0.602139 0
M  V30 17 C 5.92553 -0.215648 -0.0230021 0
M  V30 18 C 5.23275 0.90178 -0.466235 0
M  V30 19 C 3.87382 0.946241 -0.261092 0
M  V30 20 H 0.687521 -0.952353 2.17406 0
M  V30 21 H 1.15501 -2.10388 0.815758 0
M  V30 22 H -0.629796 1.82187 1.03063 0
M  V30 23 H -2.67515 -2.46607 -1.32392 0
M  V30 24 H -2.83407 -1.27206 -2.65342 0
M  V30 25 H -5.48487 -1.19774 -1.1699 0
M  V30 26 H -6.4571 0.531458 0.381929 0
M  V30 27 H -5.02069 2.09578 1.60577 0
M  V30 28 H -2.6295 1.97356 1.31554 0
M  V30 29 H 5.81666 -2.10305 0.939651 0
M  V30 30 H 6.98121 -0.287519 -0.163681 0
M  V30 31 H 5.80298 1.67991 -0.951016 0
M  V30 32 H 3.30333 1.80153 -0.593613 0
M  V30 END ATOM
M  V30 BEGIN BOND
M  V30 1 1 1 2
M  V30 2 2 2 3 CFG=2
M  V30 3 1 3 4
M  V30 4 1 4 5
M  V30 5 2 5 6
M  V30 6 1 5 7
M  V30 7 2 7 8
M  V30 8 1 8 9
M  V30 9 1 8 10
M  V30 10 2 10 11
M  V30 11 1 11 12
M  V30 12 2 12 13
M  V30 13 1 2 14
M  V30 14 2 14 15
M  V30 15 1 15 16
M  V30 16 2 16 17
M  V30 17 1 17 18
M  V30 18 2 18 19
M  V30 19 1 13 7
M  V30 20 1 19 14
M  V30 21 1 1 20
M  V30 22 1 1 21
M  V30 23 1 4 22
M  V30 24 1 9 23
M  V30 25 1 9 24
M  V30 26 1 10 25
M  V30 27 1 11 26
M  V30 28 1 12 27
M  V30 29 1 13 28
M  V30 30 1 16 29
M  V30 31 1 17 30
M  V30 32 1 18 31
M  V30 33 1 19 32
M  V30 END BOND
M  V30 END CTAB
M  END
