
     RDKit          3D

  0  0  0  0  0  0  0  0  0  0999 V3000
M  V30 BEGIN CTAB
M  V30 COUNTS 25 26 0 0 0
M  V30 BEGIN ATOM
M  V30 1 N 3.67992 0.738649 2.53175e-05 0
M  V30 2 C 2.76481 -0.377632 -0.022539 0
M  V30 3 C 1.34867 0.0819275 -0.0181506 0
M  V30 4 C 1.10859 1.43979 0.00559287 0
M  V30 5 C -0.204347 1.91152 0.0104753 0
M  V30 6 C -1.23616 0.993902 -0.00884028 0
M  V30 7 C -0.993727 -0.373642 -0.0327502 0
M  V30 8 C 0.322815 -0.837302 -0.0374764 0
M  V30 9 N 0.578596 -2.22958 -0.0617928 0
M  V30 10 C -2.0253 -1.29567 -0.0521614 0
M  V30 11 C -3.30781 -0.834189 -0.0474008 0
M  V30 12 C -3.55623 0.528541 -0.0235921 0
M  V30 13 C -2.5437 1.46605 -0.00395434 0
M  V30 14 H 4.60938 0.517305 -0.387963 0
M  V30 15 H 3.79053 1.15409 0.954478 0
M  V30 16 H 2.98218 -1.00234 0.857544 0
M  V30 17 H 2.99497 -0.97274 -0.930564 0
M  V30 18 H 1.91667 2.18218 0.0211574 0
M  V30 19 H -0.3884 2.97622 0.0291134 0
M  V30 20 H 1.261 -2.65206 0.61124 0
M  V30 21 H 0.123896 -2.89968 -0.723569 0
M  V30 22 H -1.75203 -2.34237 -0.0702243 0
M  V30 23 H -4.11295 -1.56455 -0.0627391 0
M  V30 24 H -4.58066 0.869226 -0.0202881 0
M  V30 25 H -2.78073 2.52234 0.0143797 0
M  V30 END ATOM
M  V30 BEGIN BOND
M  V30 1 1 1 2
M  V30 2 1 2 3
M  V30 3 2 3 4
M  V30 4 1 4 5
M  V30 5 2 5 6
M  V30 6 1 6 7
M  V30 7 2 7 8
M  V30 8 1 8 9
M  V30 9 1 7 10
M  V30 10 2 10 11
M  V30 11 1 11 12
M  V30 12 2 12 13
M  V30 13 1 8 3
M  V30 14 1 13 6
M  V30 15 1 1 14
M  V30 16 1 1 15
M  V30 17 1 2 16
M  V30 18 1 2 17
M  V30 19 1 4 18
M  V30 20 1 5 19
M  V30 21 1 9 20
M  V30 22 1 9 21
M  V30 23 1 10 22
M  V30 24 1 11 23
M  V30 25 1 12 24
M  V30 26 1 13 25
M  V30 END BOND
M  V30 END CTAB
M  END
