
     RDKit          3D

  0  0  0  0  0  0  0  0  0  0999 V3000
M  V30 BEGIN CTAB
M  V30 COUNTS 48 50 0 0 0
M  V30 BEGIN ATOM
M  V30 1 C -7.32154 0.901621 2.5783 0
M  V30 2 S -6.85309 -0.708627 1.85486 0
M  V30 3 C -5.71255 -0.432198 0.507662 0
M  V30 4 C -6.22311 -0.254767 -0.761381 0
M  V30 5 C -5.3578 -0.0401859 -1.8122 0
M  V30 6 C -3.9919 0.000344514 -1.618 0
M  V30 7 C -3.48755 -0.177647 -0.34759 0
M  V30 8 C -4.34241 -0.392223 0.706592 0
M  V30 9 N -2.06144 -0.13379 -0.15246 0
M  V30 10 C -1.25905 -1.20597 -0.221654 0
M  V30 11 C -1.65117 -2.62465 -0.505404 0
M  V30 12 C 0.0211862 -0.727993 0.0254288 0
M  V30 13 C -0.00703306 0.633159 0.244012 0
M  V30 14 C -1.35152 0.971465 0.121763 0
M  V30 15 C -1.94518 2.31372 0.262776 0
M  V30 16 C 1.09037 1.54049 0.536307 0
M  V30 17 O 0.911566 2.7656 0.706886 0
M  V30 18 C 2.46347 0.99882 0.635529 0
M  V30 19 S 3.29366 1.01158 -0.995916 0
M  V30 20 C 4.93132 0.341534 -0.739627 0
M  V30 21 N 5.9784 1.12349 -0.421769 0
M  V30 22 C 7.22053 0.663874 -0.22067 0
M  V30 23 N 8.30771 1.51626 0.114179 0
M  V30 24 C 7.46492 -0.697363 -0.342253 0
M  V30 25 C 6.39449 -1.50143 -0.667774 0
M  V30 26 N 5.17556 -0.982992 -0.856627 0
M  V30 27 N 6.6265 -2.89666 -0.795869 0
M  V30 28 H -6.57899 1.12696 3.37062 0
M  V30 29 H -7.22123 1.65441 1.78591 0
M  V30 30 H -8.33898 0.831291 3.01225 0
M  V30 31 H -7.28611 -0.27509 -0.981852 0
M  V30 32 H -5.72134 0.10233 -2.81691 0
M  V30 33 H -3.33583 0.172876 -2.47652 0
M  V30 34 H -3.97347 -0.534661 1.7121 0
M  V30 35 H -2.42296 -2.69283 -1.28849 0
M  V30 36 H -2.09272 -3.07188 0.42351 0
M  V30 37 H -0.730786 -3.19493 -0.734814 0
M  V30 38 H 0.92965 -1.33379 0.04647 0
M  V30 39 H -1.3887 3.09412 -0.289528 0
M  V30 40 H -2.98262 2.34365 -0.118827 0
M  V30 41 H -1.94913 2.59068 1.33672 0
M  V30 42 H 2.46524 -0.0621559 0.999919 0
M  V30 43 H 3.09607 1.55905 1.34476 0
M  V30 44 H 9.26151 1.16332 0.216352 0
M  V30 45 H 8.0854 2.54522 0.255029 0
M  V30 46 H 8.45271 -1.12682 -0.19048 0
M  V30 47 H 5.94402 -3.53735 -1.29313 0
M  V30 48 H 7.47393 -3.35986 -0.410264 0
M  V30 END ATOM
M  V30 BEGIN BOND
M  V30 1 1 1 2
M  V30 2 1 2 3
M  V30 3 2 3 4
M  V30 4 1 4 5
M  V30 5 2 5 6
M  V30 6 1 6 7
M  V30 7 2 7 8
M  V30 8 1 7 9
M  V30 9 1 9 10
M  V30 10 1 10 11
M  V30 11 2 10 12
M  V30 12 1 12 13
M  V30 13 2 13 14
M  V30 14 1 14 15
M  V30 15 1 13 16
M  V30 16 2 16 17
M  V30 17 1 16 18
M  V30 18 1 18 19
M  V30 19 1 19 20
M  V30 20 2 20 21
M  V30 21 1 21 22
M  V30 22 1 22 23
M  V30 23 2 22 24
M  V30 24 1 24 25
M  V30 25 2 25 26
M  V30 26 1 25 27
M  V30 27 1 8 3
M  V30 28 1 14 9
M  V30 29 1 26 20
M  V30 30 1 1 28
M  V30 31 1 1 29
M  V30 32 1 1 30
M  V30 33 1 4 31
M  V30 34 1 5 32
M  V30 35 1 6 33
M  V30 36 1 8 34
M  V30 37 1 11 35
M  V30 38 1 11 36
M  V30 39 1 11 37
M  V30 40 1 12 38
M  V30 41 1 15 39
M  V30 42 1 15 40
M  V30 43 1 15 41
M  V30 44 1 18 42
M  V30 45 1 18 43
M  V30 46 1 23 44
M  V30 47 1 23 45
M  V30 48 1 24 46
M  V30 49 1 27 47
M  V30 50 1 27 48
M  V30 END BOND
M  V30 END CTAB
M  END
