
     RDKit          3D

  0  0  0  0  0  0  0  0  0  0999 V3000
M  V30 BEGIN CTAB
M  V30 COUNTS 21 20 0 0 0
M  V30 BEGIN ATOM
M  V30 1 N -1.26424 1.58788 0.653801 0
M  V30 2 C -1.07086 0.730555 -0.483996 0
M  V30 3 C -0.0318556 -0.343639 -0.20129 0
M  V30 4 C 1.21805 0.346638 0.117351 0
M  V30 5 N 2.25666 0.12006 -0.595845 0
M  V30 6 N 1.35334 1.26318 1.18553 0
M  V30 7 C -0.484056 -1.29352 0.878607 0
M  V30 8 C 0.168832 -1.12731 -1.47345 0
M  V30 9 H -2.19437 2.04183 0.57758 0
M  V30 10 H -1.20488 1.0556 1.54919 0
M  V30 11 H -2.01221 0.212732 -0.742817 0
M  V30 12 H -0.762516 1.30179 -1.38104 0
M  V30 13 H 2.36084 -0.498421 -1.39544 0
M  V30 14 H 1.24306 2.26761 0.973559 0
M  V30 15 H 1.55413 0.928397 2.13325 0
M  V30 16 H -1.5753 -1.30304 1.01792 0
M  V30 17 H -0.00634444 -1.04635 1.86546 0
M  V30 18 H -0.187459 -2.32965 0.617462 0
M  V30 19 H 0.925141 -1.91349 -1.30078 0
M  V30 20 H 0.52885 -0.438486 -2.23952 0
M  V30 21 H -0.814813 -1.56236 -1.75554 0
M  V30 END ATOM
M  V30 BEGIN BOND
M  V30 1 1 1 2
M  V30 2 1 2 3
M  V30 3 1 3 4
M  V30 4 2 4 5 CFG=2
M  V30 5 1 4 6
M  V30 6 1 3 7
M  V30 7 1 3 8
M  V30 8 1 1 9
M  V30 9 1 1 10
M  V30 10 1 2 11
M  V30 11 1 2 12
M  V30 12 1 5 13
M  V30 13 1 6 14
M  V30 14 1 6 15
M  V30 15 1 7 16
M  V30 16 1 7 17
M  V30 17 1 7 18
M  V30 18 1 8 19
M  V30 19 1 8 20
M  V30 20 1 8 21
M  V30 END BOND
M  V30 END CTAB
M  END
