
     RDKit          3D

  0  0  0  0  0  0  0  0  0  0999 V3000
M  V30 BEGIN CTAB
M  V30 COUNTS 35 36 0 0 0
M  V30 BEGIN ATOM
M  V30 1 C -2.47009 0.111683 2.43943 0
M  V30 2 C -2.21524 -0.0356052 0.957185 0
M  V30 3 O -2.92674 0.967465 0.311883 0
M  V30 4 C -2.93281 0.814691 -1.06263 0
M  V30 5 C -3.1183 2.18535 -1.67893 0
M  V30 6 C -1.73715 0.0843142 -1.59338 0
M  V30 7 N -0.556795 0.221057 -0.781347 0
M  V30 8 C -0.774655 0.126714 0.615651 0
M  V30 9 C 0.417617 -0.715498 -1.24197 0
M  V30 10 C 1.7071 -0.677822 -0.52213 0
M  V30 11 N 2.62417 -1.61526 -0.805314 0
M  V30 12 C 3.83891 -1.66652 -0.204378 0
M  V30 13 N 4.79 -2.67305 -0.526187 0
M  V30 14 N 4.11267 -0.725394 0.712138 0
M  V30 15 C 3.22927 0.233996 1.03114 0
M  V30 16 N 2.01897 0.240144 0.395568 0
M  V30 17 N 3.52832 1.23762 2.01228 0
M  V30 18 H -2.87053 1.12003 2.67189 0
M  V30 19 H -1.574 -0.0942018 3.04742 0
M  V30 20 H -3.29702 -0.60248 2.7163 0
M  V30 21 H -2.59718 -1.00044 0.560763 0
M  V30 22 H -3.83745 0.226094 -1.31848 0
M  V30 23 H -3.01275 2.12885 -2.78639 0
M  V30 24 H -4.16464 2.51413 -1.4875 0
M  V30 25 H -2.41633 2.90842 -1.21797 0
M  V30 26 H -1.96054 -0.986777 -1.78141 0
M  V30 27 H -1.49896 0.526074 -2.58497 0
M  V30 28 H -0.256769 -0.793584 1.01436 0
M  V30 29 H -0.333288 0.980879 1.1789 0
M  V30 30 H 0.0260028 -1.76485 -1.19871 0
M  V30 31 H 0.654978 -0.465811 -2.31617 0
M  V30 32 H 4.8726 -3.57326 -0.0207926 0
M  V30 33 H 5.44 -2.49265 -1.31589 0
M  V30 34 H 4.00281 2.13705 1.75875 0
M  V30 35 H 3.28783 1.11863 3.02087 0
M  V30 END ATOM
M  V30 BEGIN BOND
M  V30 1 1 1 2
M  V30 2 1 2 3
M  V30 3 1 3 4
M  V30 4 1 4 5
M  V30 5 1 4 6
M  V30 6 1 6 7
M  V30 7 1 7 8
M  V30 8 1 7 9
M  V30 9 1 9 10
M  V30 10 2 10 11
M  V30 11 1 11 12
M  V30 12 1 12 13
M  V30 13 2 12 14
M  V30 14 1 14 15
M  V30 15 2 15 16
M  V30 16 1 15 17
M  V30 17 1 8 2
M  V30 18 1 16 10
M  V30 19 1 1 18
M  V30 20 1 1 19
M  V30 21 1 1 20
M  V30 22 1 2 21
M  V30 23 1 4 22
M  V30 24 1 5 23
M  V30 25 1 5 24
M  V30 26 1 5 25
M  V30 27 1 6 26
M  V30 28 1 6 27
M  V30 29 1 8 28
M  V30 30 1 8 29
M  V30 31 1 9 30
M  V30 32 1 9 31
M  V30 33 1 13 32
M  V30 34 1 13 33
M  V30 35 1 17 34
M  V30 36 1 17 35
M  V30 END BOND
M  V30 END CTAB
M  END
