
     RDKit          3D

  0  0  0  0  0  0  0  0  0  0999 V3000
M  V30 BEGIN CTAB
M  V30 COUNTS 22 22 0 0 0
M  V30 BEGIN ATOM
M  V30 1 N -0.538865 -1.89905 -1.53762 0
M  V30 2 C 0.0125943 -0.915135 -0.671918 0
M  V30 3 C -0.826162 -0.0526573 0.0176106 0
M  V30 4 C -0.277612 0.878053 0.83788 0
M  V30 5 C 1.07503 1.00432 1.01617 0
M  V30 6 C 1.92226 0.134639 0.320971 0
M  V30 7 C 1.3825 -0.812626 -0.51293 0
M  V30 8 C 3.35768 0.229346 0.476815 0
M  V30 9 O 3.90768 1.185 1.31843 0
M  V30 10 O 4.09879 -0.545511 -0.1433 0
M  V30 11 S -2.54769 -0.238147 -0.230365 0
M  V30 12 N -3.44637 0.893308 0.684792 0
M  V30 13 O -2.91796 -1.65398 0.114814 0
M  V30 14 O -2.80464 -0.079504 -1.71857 0
M  V30 15 H -0.745857 -2.85255 -1.17983 0
M  V30 16 H -0.723845 -1.63824 -2.51854 0
M  V30 17 H -0.944763 1.54959 1.37397 0
M  V30 18 H 1.54973 1.72155 1.65104 0
M  V30 19 H 2.02077 -1.51379 -1.0758 0
M  V30 20 H 4.21061 2.10401 0.964609 0
M  V30 21 H -4.45875 0.665344 0.562334 0
M  V30 22 H -3.30512 1.83604 0.24944 0
M  V30 END ATOM
M  V30 BEGIN BOND
M  V30 1 1 1 2
M  V30 2 2 2 3
M  V30 3 1 3 4
M  V30 4 2 4 5
M  V30 5 1 5 6
M  V30 6 2 6 7
M  V30 7 1 6 8
M  V30 8 1 8 9
M  V30 9 2 8 10
M  V30 10 1 3 11
M  V30 11 1 11 12
M  V30 12 2 11 13
M  V30 13 2 11 14
M  V30 14 1 7 2
M  V30 15 1 1 15
M  V30 16 1 1 16
M  V30 17 1 4 17
M  V30 18 1 5 18
M  V30 19 1 7 19
M  V30 20 1 9 20
M  V30 21 1 12 21
M  V30 22 1 12 22
M  V30 END BOND
M  V30 END CTAB
M  END
