
     RDKit          3D

  0  0  0  0  0  0  0  0  0  0999 V3000
M  V30 BEGIN CTAB
M  V30 COUNTS 29 30 0 0 0
M  V30 BEGIN ATOM
M  V30 1 C -1.18342 -2.21514 0.563728 0
M  V30 2 N -1.39328 -0.800597 0.56507 0
M  V30 3 C -2.7011 -0.586399 -0.0824543 0
M  V30 4 C -2.80524 0.842247 -0.596501 0
M  V30 5 N -2.0967 1.66715 0.36313 0
M  V30 6 C -0.661603 1.40704 0.155413 0
M  V30 7 C -0.446741 -0.0421865 -0.227285 0
M  V30 8 C 0.946374 -0.46536 -0.0757246 0
M  V30 9 N 1.46621 -1.71871 -0.0351065 0
M  V30 10 N 2.76026 -1.69229 0.106961 0
M  V30 11 C 3.12558 -0.422457 0.163454 0
M  V30 12 N 2.00202 0.345761 0.0503342 0
M  V30 13 N 2.10465 1.73892 0.07694 0
M  V30 14 N 4.47557 0.0172499 0.317078 0
M  V30 15 H -0.91863 -2.63759 -0.421555 0
M  V30 16 H -0.513744 -2.57153 1.39078 0
M  V30 17 H -2.17464 -2.7017 0.81384 0
M  V30 18 H -3.45822 -0.788009 0.673025 0
M  V30 19 H -2.76314 -1.32277 -0.913756 0
M  V30 20 H -2.43128 0.947523 -1.62635 0
M  V30 21 H -3.87722 1.17424 -0.564067 0
M  V30 22 H -2.40293 1.3531 1.31028 0
M  V30 23 H -0.216429 1.57128 1.16422 0
M  V30 24 H -0.350376 2.12224 -0.609093 0
M  V30 25 H -0.758686 -0.162051 -1.29296 0
M  V30 26 H 2.16257 2.23807 0.991397 0
M  V30 27 H 2.12862 2.33899 -0.77661 0
M  V30 28 H 5.03492 0.423457 -0.464525 0
M  V30 29 H 4.94662 -0.060478 1.24289 0
M  V30 END ATOM
M  V30 BEGIN BOND
M  V30 1 1 1 2
M  V30 2 1 2 3
M  V30 3 1 3 4
M  V30 4 1 4 5
M  V30 5 1 5 6
M  V30 6 1 6 7
M  V30 7 1 7 8
M  V30 8 2 8 9
M  V30 9 1 9 10
M  V30 10 2 10 11
M  V30 11 1 11 12
M  V30 12 1 12 13
M  V30 13 1 11 14
M  V30 14 1 7 2
M  V30 15 1 12 8
M  V30 16 1 1 15
M  V30 17 1 1 16
M  V30 18 1 1 17
M  V30 19 1 3 18
M  V30 20 1 3 19
M  V30 21 1 4 20
M  V30 22 1 4 21
M  V30 23 1 5 22
M  V30 24 1 6 23
M  V30 25 1 6 24
M  V30 26 1 7 25
M  V30 27 1 13 26
M  V30 28 1 13 27
M  V30 29 1 14 28
M  V30 30 1 14 29
M  V30 END BOND
M  V30 END CTAB
M  END
