
     RDKit          3D

  0  0  0  0  0  0  0  0  0  0999 V3000
M  V30 BEGIN CTAB
M  V30 COUNTS 29 30 0 0 0
M  V30 BEGIN ATOM
M  V30 1 N -4.36726 0.602106 0.535006 0
M  V30 2 C -2.96206 0.498644 0.376762 0
M  V30 3 C -2.13514 1.56263 0.604986 0
M  V30 4 C -0.769118 1.45459 0.448954 0
M  V30 5 C -0.231915 0.238381 0.0523446 0
M  V30 6 C -1.07338 -0.851665 -0.181924 0
M  V30 7 C -2.42075 -0.715537 -0.019678 0
M  V30 8 N -3.30579 -1.80241 -0.249155 0
M  V30 9 N 1.16847 0.145637 -0.0963648 0
M  V30 10 C 1.73026 -1.05245 -0.659337 0
M  V30 11 C 3.12167 -0.858501 -1.23696 0
M  V30 12 C 3.93777 -0.180619 -0.192121 0
M  V30 13 C 3.42378 0.802025 0.542555 0
M  V30 14 C 2.01512 1.22649 0.314723 0
M  V30 15 H -4.84328 1.48221 0.258151 0
M  V30 16 H -4.94225 -0.170494 0.918418 0
M  V30 17 H -2.56991 2.51668 0.917403 0
M  V30 18 H -0.135233 2.32128 0.63666 0
M  V30 19 H -0.662914 -1.78884 -0.484963 0
M  V30 20 H -4.32926 -1.68708 -0.381031 0
M  V30 21 H -2.93556 -2.77692 -0.292222 0
M  V30 22 H 1.82523 -1.80141 0.156292 0
M  V30 23 H 1.08303 -1.50099 -1.44549 0
M  V30 24 H 3.11073 -0.296124 -2.17607 0
M  V30 25 H 3.51568 -1.89078 -1.42619 0
M  V30 26 H 4.98354 -0.474174 -0.00155687 0
M  V30 27 H 4.05867 1.26244 1.28914 0
M  V30 28 H 2.03518 2.04359 -0.429975 0
M  V30 29 H 1.6747 1.69128 1.2796 0
M  V30 END ATOM
M  V30 BEGIN BOND
M  V30 1 1 1 2
M  V30 2 2 2 3
M  V30 3 1 3 4
M  V30 4 2 4 5
M  V30 5 1 5 6
M  V30 6 2 6 7
M  V30 7 1 7 8
M  V30 8 1 5 9
M  V30 9 1 9 10
M  V30 10 1 10 11
M  V30 11 1 11 12
M  V30 12 2 12 13
M  V30 13 1 13 14
M  V30 14 1 7 2
M  V30 15 1 14 9
M  V30 16 1 1 15
M  V30 17 1 1 16
M  V30 18 1 3 17
M  V30 19 1 4 18
M  V30 20 1 6 19
M  V30 21 1 8 20
M  V30 22 1 8 21
M  V30 23 1 10 22
M  V30 24 1 10 23
M  V30 25 1 11 24
M  V30 26 1 11 25
M  V30 27 1 12 26
M  V30 28 1 13 27
M  V30 29 1 14 28
M  V30 30 1 14 29
M  V30 END BOND
M  V30 END CTAB
M  END
