
     RDKit          3D

  0  0  0  0  0  0  0  0  0  0999 V3000
M  V30 BEGIN CTAB
M  V30 COUNTS 20 20 0 0 0
M  V30 BEGIN ATOM
M  V30 1 N 2.8462 -1.35133 -0.121052 0
M  V30 2 C 1.71385 -0.487551 -0.0588062 0
M  V30 3 C 0.434425 -1.00129 -0.117206 0
M  V30 4 C -0.662852 -0.168689 -0.0572805 0
M  V30 5 C -2.01396 -0.760155 -0.123165 0
M  V30 6 O -1.97186 -2.14589 -0.242438 0
M  V30 7 C -0.549618 1.20047 0.062263 0
M  V30 8 N -1.68975 2.05235 0.123379 0
M  V30 9 C 0.732316 1.71785 0.121005 0
M  V30 10 C 1.83113 0.882695 0.0608753 0
M  V30 11 H 3.44952 -1.4044 -0.979863 0
M  V30 12 H 3.13447 -1.96898 0.669717 0
M  V30 13 H 0.346301 -2.0792 -0.211311 0
M  V30 14 H -2.68355 -0.419025 0.675499 0
M  V30 15 H -2.46724 -0.391296 -1.09001 0
M  V30 16 H -1.84783 -2.55045 0.659039 0
M  V30 17 H -1.72999 2.8959 0.759243 0
M  V30 18 H -2.52401 1.87801 -0.453322 0
M  V30 19 H 0.825487 2.80654 0.216088 0
M  V30 20 H 2.82696 1.29443 0.107344 0
M  V30 END ATOM
M  V30 BEGIN BOND
M  V30 1 1 1 2
M  V30 2 2 2 3
M  V30 3 1 3 4
M  V30 4 1 4 5
M  V30 5 1 5 6
M  V30 6 2 4 7
M  V30 7 1 7 8
M  V30 8 1 7 9
M  V30 9 2 9 10
M  V30 10 1 10 2
M  V30 11 1 1 11
M  V30 12 1 1 12
M  V30 13 1 3 13
M  V30 14 1 5 14
M  V30 15 1 5 15
M  V30 16 1 6 16
M  V30 17 1 8 17
M  V30 18 1 8 18
M  V30 19 1 9 19
M  V30 20 1 10 20
M  V30 END BOND
M  V30 END CTAB
M  END
