
     RDKit          3D

  0  0  0  0  0  0  0  0  0  0999 V3000
M  V30 BEGIN CTAB
M  V30 COUNTS 49 51 0 0 0
M  V30 BEGIN ATOM
M  V30 1 C 5.24866 2.74686 0.85373 0
M  V30 2 O 4.53252 1.71104 0.217538 0
M  V30 3 C 5.18314 0.508755 -0.115495 0
M  V30 4 C 6.51956 0.315728 0.168478 0
M  V30 5 C 7.19306 -0.847483 -0.141889 0
M  V30 6 C 6.49809 -1.85869 -0.762341 0
M  V30 7 C 5.14704 -1.68214 -1.05726 0
M  V30 8 C 4.49658 -0.511625 -0.737537 0
M  V30 9 C 3.05622 -0.356952 -1.06399 0
M  V30 10 C 2.28372 -0.526904 0.222389 0
M  V30 11 C 0.793733 -0.386402 0.00771744 0
M  V30 12 N 0.0992516 -0.559189 1.26355 0
M  V30 13 C -1.32 -0.477453 1.36671 0
M  V30 14 C -2.11057 -0.223546 0.259518 0
M  V30 15 C -3.48346 -0.141604 0.339809 0
M  V30 16 N -4.03126 -0.320467 1.55226 0
M  V30 17 C -3.30172 -0.569152 2.65395 0
M  V30 18 N -1.95416 -0.642925 2.53819 0
M  V30 19 N -3.86159 -0.761072 3.94203 0
M  V30 20 C -4.34762 0.130855 -0.83387 0 CFG=2
M  V30 21 C -5.22573 1.33926 -0.552308 0
M  V30 22 C -6.45767 0.467641 -0.604794 0 CFG=2
M  V30 23 C -5.59576 -0.716883 -0.935836 0
M  V30 24 N -7.2854 0.822605 -1.74342 0
M  V30 25 H 6.18532 2.9145 0.284017 0
M  V30 26 H 5.51638 2.46095 1.87795 0
M  V30 27 H 4.64368 3.68241 0.840868 0
M  V30 28 H 7.07568 1.12337 0.664611 0
M  V30 29 H 8.23648 -0.976073 0.0893212 0
M  V30 30 H 6.98553 -2.79129 -1.02543 0
M  V30 31 H 4.64197 -2.51336 -1.54897 0
M  V30 32 H 2.73264 -1.13836 -1.77316 0
M  V30 33 H 2.85155 0.666653 -1.44507 0
M  V30 34 H 2.45233 -1.54059 0.64889 0
M  V30 35 H 2.60513 0.188085 0.999802 0
M  V30 36 H 0.63096 0.635291 -0.416033 0
M  V30 37 H 0.485003 -1.14467 -0.747231 0
M  V30 38 H 0.666388 -0.749374 2.11552 0
M  V30 39 H -1.6168 -0.0882693 -0.687832 0
M  V30 40 H -3.7214 -1.67792 4.40582 0
M  V30 41 H -4.38909 0.0108765 4.37974 0
M  V30 42 H -3.79621 0.260618 -1.78053 0
M  V30 43 H -5.20289 2.12301 -1.32276 0
M  V30 44 H -5.06467 1.80093 0.455503 0
M  V30 45 H -7.01063 0.370981 0.359343 0
M  V30 46 H -5.76576 -1.17822 -1.92588 0
M  V30 47 H -5.60563 -1.50495 -0.139424 0
M  V30 48 H -7.95405 1.58773 -1.54746 0
M  V30 49 H -7.65858 0.0174345 -2.259 0
M  V30 END ATOM
M  V30 BEGIN BOND
M  V30 1 1 1 2
M  V30 2 1 2 3
M  V30 3 2 3 4
M  V30 4 1 4 5
M  V30 5 2 5 6
M  V30 6 1 6 7
M  V30 7 2 7 8
M  V30 8 1 8 9
M  V30 9 1 9 10
M  V30 10 1 10 11
M  V30 11 1 11 12
M  V30 12 1 12 13
M  V30 13 2 13 14
M  V30 14 1 14 15
M  V30 15 2 15 16
M  V30 16 1 16 17
M  V30 17 2 17 18
M  V30 18 1 17 19
M  V30 19 1 15 20
M  V30 20 1 20 21
M  V30 21 1 21 22
M  V30 22 1 22 23
M  V30 23 1 22 24
M  V30 24 1 8 3
M  V30 25 1 18 13
M  V30 26 1 23 20
M  V30 27 1 1 25
M  V30 28 1 1 26
M  V30 29 1 1 27
M  V30 30 1 4 28
M  V30 31 1 5 29
M  V30 32 1 6 30
M  V30 33 1 7 31
M  V30 34 1 9 32
M  V30 35 1 9 33
M  V30 36 1 10 34
M  V30 37 1 10 35
M  V30 38 1 11 36
M  V30 39 1 11 37
M  V30 40 1 12 38
M  V30 41 1 14 39
M  V30 42 1 19 40
M  V30 43 1 19 41
M  V30 44 1 20 42 CFG=3
M  V30 45 1 21 43
M  V30 46 1 21 44
M  V30 47 1 22 45 CFG=1
M  V30 48 1 23 46
M  V30 49 1 23 47
M  V30 50 1 24 48
M  V30 51 1 24 49
M  V30 END BOND
M  V30 END CTAB
M  END
