
     RDKit          3D

  0  0  0  0  0  0  0  0  0  0999 V3000
M  V30 BEGIN CTAB
M  V30 COUNTS 73 76 0 0 0
M  V30 BEGIN ATOM
M  V30 1 C 4.19956 -1.07709 -0.431856 0 CFG=1
M  V30 2 O 2.98049 -0.58704 -0.749959 0
M  V30 3 C 2.38972 0.305133 0.0756583 0
M  V30 4 O 2.70691 1.62164 -0.279938 0
M  V30 5 C 1.57704 2.39855 -0.0453017 0 CFG=2
M  V30 6 C 0.476756 1.45425 0.270913 0 CFG=2
M  V30 7 O 1.00498 0.240457 -0.218997 0
M  V30 8 C -0.854646 1.76372 -0.282411 0 CFG=2
M  V30 9 O -1.55792 0.638204 -0.603751 0
M  V30 10 C -2.7715 0.469385 0.0523262 0 CFG=1
M  V30 11 C -3.92847 0.381803 -0.910349 0 CFG=2
M  V30 12 O -4.36237 1.67622 -1.29076 0
M  V30 13 C -5.13768 -0.304865 -0.411371 0 CFG=1
M  V30 14 N -6.00373 -0.597456 -1.53425 0
M  V30 15 C -4.89268 -1.57774 0.340482 0
M  V30 16 C -3.93455 -1.21904 1.46297 0 CFG=1
M  V30 17 N -3.76581 -2.27775 2.40698 0
M  V30 18 C -5.02865 -2.55924 3.04669 0
M  V30 19 C -2.63446 -0.853953 0.778772 0 CFG=2
M  V30 20 O -1.57347 -0.8374 1.68141 0
M  V30 21 O -0.834481 2.56795 -1.42181 0
M  V30 22 C -0.0627942 3.70781 -1.21889 0 CFG=2
M  V30 23 C -0.379139 4.79295 -2.18693 0
M  V30 24 O -1.72408 5.12662 -2.02489 0
M  V30 25 C 1.36744 3.22353 -1.29864 0 CFG=2
M  V30 26 O 1.51273 2.46019 -2.43493 0
M  V30 27 C 2.64219 0.168231 1.53247 0 CFG=2
M  V30 28 O 2.76672 1.40569 2.19384 0
M  V30 29 C 3.85963 -0.62609 1.90124 0 CFG=1
M  V30 30 O 3.76834 -1.10877 3.20553 0
M  V30 31 C 4.1099 -1.76326 0.907824 0 CFG=1
M  V30 32 O 2.97874 -2.58423 1.0112 0
M  V30 33 C 4.71059 -1.99208 -1.5087 0 CFG=1
M  V30 34 N 6.01809 -2.48699 -1.11772 0
M  V30 35 C 3.82378 -3.16399 -1.78615 0
M  V30 36 O 4.41595 -3.89639 -2.82943 0
M  V30 37 H 4.9256 -0.241529 -0.340027 0
M  V30 38 H 1.73176 3.13449 0.778548 0
M  V30 39 H 0.442832 1.31981 1.38195 0
M  V30 40 H -1.44369 2.32489 0.501894 0
M  V30 41 H -2.98961 1.29116 0.752883 0
M  V30 42 H -3.54628 -0.166108 -1.81483 0
M  V30 43 H -4.01144 2.29731 -0.627501 0
M  V30 44 H -5.70143 0.378484 0.269099 0
M  V30 45 H -6.92784 -0.141184 -1.45493 0
M  V30 46 H -5.54838 -0.54143 -2.45165 0
M  V30 47 H -4.45897 -2.36318 -0.316633 0
M  V30 48 H -5.82865 -1.91063 0.786656 0
M  V30 49 H -4.36365 -0.301221 1.9408 0
M  V30 50 H -3.49642 -3.14191 1.87237 0
M  V30 51 H -4.83555 -3.13322 3.99961 0
M  V30 52 H -5.55378 -1.60011 3.28272 0
M  V30 53 H -5.70626 -3.14581 2.40425 0
M  V30 54 H -2.45576 -1.62264 -0.00742898 0
M  V30 55 H -1.12595 -1.73958 1.63396 0
M  V30 56 H -0.262903 4.03666 -0.170596 0
M  V30 57 H 0.228609 5.68691 -1.9536 0
M  V30 58 H -0.161955 4.44139 -3.21305 0
M  V30 59 H -2.16148 5.1201 -2.90837 0
M  V30 60 H 2.04094 4.10131 -1.26729 0
M  V30 61 H 2.15176 1.71357 -2.32265 0
M  V30 62 H 1.76339 -0.325469 2.00088 0
M  V30 63 H 3.60615 1.8534 1.91846 0
M  V30 64 H 4.76648 0.0115311 1.85431 0
M  V30 65 H 4.27576 -0.532795 3.85443 0
M  V30 66 H 5.03886 -2.26705 1.19638 0
M  V30 67 H 2.78752 -2.64157 1.98353 0
M  V30 68 H 4.84231 -1.4452 -2.46624 0
M  V30 69 H 6.5283 -1.8295 -0.508602 0
M  V30 70 H 5.83908 -3.3714 -0.559078 0
M  V30 71 H 2.80673 -2.91982 -2.09341 0
M  V30 72 H 3.86469 -3.84526 -0.903227 0
M  V30 73 H 5.07612 -3.37337 -3.31489 0
M  V30 END ATOM
M  V30 BEGIN BOND
M  V30 1 1 1 2
M  V30 2 1 2 3
M  V30 3 1 3 4
M  V30 4 1 4 5
M  V30 5 1 5 6
M  V30 6 1 6 7
M  V30 7 1 6 8
M  V30 8 1 8 9
M  V30 9 1 9 10
M  V30 10 1 10 11
M  V30 11 1 11 12
M  V30 12 1 11 13
M  V30 13 1 13 14
M  V30 14 1 13 15
M  V30 15 1 15 16
M  V30 16 1 16 17
M  V30 17 1 17 18
M  V30 18 1 16 19
M  V30 19 1 19 20
M  V30 20 1 8 21
M  V30 21 1 21 22
M  V30 22 1 22 23
M  V30 23 1 23 24
M  V30 24 1 22 25
M  V30 25 1 25 26
M  V30 26 1 3 27
M  V30 27 1 27 28
M  V30 28 1 27 29
M  V30 29 1 29 30
M  V30 30 1 29 31
M  V30 31 1 31 32
M  V30 32 1 1 33
M  V30 33 1 33 34
M  V30 34 1 33 35
M  V30 35 1 35 36
M  V30 36 1 31 1
M  V30 37 1 7 3
M  V30 38 1 19 10
M  V30 39 1 25 5
M  V30 40 1 1 37 CFG=1
M  V30 41 1 5 38 CFG=1
M  V30 42 1 6 39 CFG=1
M  V30 43 1 8 40 CFG=1
M  V30 44 1 10 41 CFG=1
M  V30 45 1 11 42 CFG=3
M  V30 46 1 12 43
M  V30 47 1 13 44 CFG=1
M  V30 48 1 14 45
M  V30 49 1 14 46
M  V30 50 1 15 47
M  V30 51 1 15 48
M  V30 52 1 16 49 CFG=1
M  V30 53 1 17 50
M  V30 54 1 18 51
M  V30 55 1 18 52
M  V30 56 1 18 53
M  V30 57 1 19 54 CFG=3
M  V30 58 1 20 55
M  V30 59 1 22 56 CFG=1
M  V30 60 1 23 57
M  V30 61 1 23 58
M  V30 62 1 24 59
M  V30 63 1 25 60 CFG=3
M  V30 64 1 26 61
M  V30 65 1 27 62 CFG=1
M  V30 66 1 28 63
M  V30 67 1 29 64 CFG=1
M  V30 68 1 30 65
M  V30 69 1 31 66 CFG=1
M  V30 70 1 32 67
M  V30 71 1 33 68 CFG=3
M  V30 72 1 34 69
M  V30 73 1 34 70
M  V30 74 1 35 71
M  V30 75 1 35 72
M  V30 76 1 36 73
M  V30 END BOND
M  V30 END CTAB
M  END
