
     RDKit          3D

  0  0  0  0  0  0  0  0  0  0999 V3000
M  V30 BEGIN CTAB
M  V30 COUNTS 30 31 0 0 0
M  V30 BEGIN ATOM
M  V30 1 N 2.96964 -0.297428 -1.10031 0
M  V30 2 N 2.50295 -0.0541839 0.181589 0
M  V30 3 C 1.27357 0.412156 0.444005 0
M  V30 4 N 1.22925 0.503335 1.78081 0
M  V30 5 N 2.35904 0.11854 2.32102 0
M  V30 6 C 3.1871 -0.24113 1.33097 0
M  V30 7 N 4.52406 -0.726173 1.44037 0
M  V30 8 C 0.15817 0.770716 -0.46956 0
M  V30 9 C -0.753472 -0.378413 -0.755783 0
M  V30 10 C -1.40927 -0.948629 0.458006 0
M  V30 11 C -2.33266 0.0189873 1.14352 0
M  V30 12 C -3.16292 0.794161 0.151187 0
M  V30 13 N -3.13519 0.109091 -1.12388 0
M  V30 14 C -1.82055 0.0872572 -1.70927 0
M  V30 15 H 3.25906 -1.24641 -1.39427 0
M  V30 16 H 3.02534 0.493518 -1.76792 0
M  V30 17 H 5.16883 -0.59127 0.651689 0
M  V30 18 H 4.84276 -1.20374 2.29214 0
M  V30 19 H -0.406801 1.64731 -0.060129 0
M  V30 20 H 0.566382 1.12168 -1.44892 0
M  V30 21 H -0.167508 -1.17701 -1.24276 0
M  V30 22 H -0.700343 -1.3337 1.21276 0
M  V30 23 H -2.01733 -1.82482 0.129255 0
M  V30 24 H -1.82135 0.70943 1.81786 0
M  V30 25 H -3.04668 -0.601961 1.7592 0
M  V30 26 H -2.80152 1.82299 -0.00626577 0
M  V30 27 H -4.24521 0.825541 0.458039 0
M  V30 28 H -3.74731 0.682829 -1.77631 0
M  V30 29 H -1.61472 1.10169 -2.11592 0
M  V30 30 H -1.8833 -0.594368 -2.60112 0
M  V30 END ATOM
M  V30 BEGIN BOND
M  V30 1 1 1 2
M  V30 2 1 2 3
M  V30 3 2 3 4
M  V30 4 1 4 5
M  V30 5 2 5 6
M  V30 6 1 6 7
M  V30 7 1 3 8
M  V30 8 1 8 9
M  V30 9 1 9 10
M  V30 10 1 10 11
M  V30 11 1 11 12
M  V30 12 1 12 13
M  V30 13 1 13 14
M  V30 14 1 6 2
M  V30 15 1 14 9
M  V30 16 1 1 15
M  V30 17 1 1 16
M  V30 18 1 7 17
M  V30 19 1 7 18
M  V30 20 1 8 19
M  V30 21 1 8 20
M  V30 22 1 9 21
M  V30 23 1 10 22
M  V30 24 1 10 23
M  V30 25 1 11 24
M  V30 26 1 11 25
M  V30 27 1 12 26
M  V30 28 1 12 27
M  V30 29 1 13 28
M  V30 30 1 14 29
M  V30 31 1 14 30
M  V30 END BOND
M  V30 END CTAB
M  END
