
     RDKit          3D

  0  0  0  0  0  0  0  0  0  0999 V3000
M  V30 BEGIN CTAB
M  V30 COUNTS 8 7 0 0 0
M  V30 BEGIN ATOM
M  V30 1 N -1.1909 -0.284739 -0.328071 0 MASS=15
M  V30 2 C -0.0423839 0.415762 0.0802224 0 MASS=13
M  V30 3 N 1.25508 -0.190986 0.192971 0 MASS=15
M  V30 4 S -0.175214 1.99445 0.446717 0
M  V30 5 H -1.30705 -1.27772 -0.0869436 0
M  V30 6 H -1.92532 0.189687 -0.871654 0
M  V30 7 H 1.40588 -0.728022 1.09413 0
M  V30 8 H 1.97991 -0.118431 -0.527369 0
M  V30 END ATOM
M  V30 BEGIN BOND
M  V30 1 1 1 2
M  V30 2 1 2 3
M  V30 3 2 2 4
M  V30 4 1 1 5
M  V30 5 1 1 6
M  V30 6 1 3 7
M  V30 7 1 3 8
M  V30 END BOND
M  V30 END CTAB
M  END
