
     RDKit          3D

  0  0  0  0  0  0  0  0  0  0999 V3000
M  V30 BEGIN CTAB
M  V30 COUNTS 48 49 0 0 0
M  V30 BEGIN ATOM
M  V30 1 O 1.30446 -1.3509 -1.98335 0
M  V30 2 C 1.62627 -2.26269 -1.21187 0
M  V30 3 N 2.66272 -2.11225 -0.282934 0
M  V30 4 C 3.46459 -0.968329 -0.0724014 0
M  V30 5 C 3.19739 0.285396 -0.544724 0
M  V30 6 C 4.06965 1.36322 -0.2962 0
M  V30 7 C 5.22728 1.21869 0.428143 0
M  V30 8 C 5.49855 -0.042555 0.905372 0
M  V30 9 C 4.65546 -1.10008 0.668865 0
M  V30 10 S 6.28516 2.5811 0.717059 0
M  V30 11 O 5.43123 3.80471 0.836191 0
M  V30 12 O 6.95618 2.38122 2.06874 0
M  V30 13 N 7.47006 2.74033 -0.528851 0
M  V30 14 C 0.886819 -3.53123 -1.2892 0
M  V30 15 C -0.469544 -3.45643 -1.89644 0
M  V30 16 S -1.69149 -2.59874 -0.951811 0
M  V30 17 C -1.44047 -0.853839 -0.758945 0
M  V30 18 C -2.59974 -0.217593 -0.0154 0
M  V30 19 N -2.57854 -0.118911 1.32016 0
M  V30 20 C -3.60063 0.444463 2.00306 0
M  V30 21 N -3.58579 0.552864 3.42118 0
M  V30 22 N -4.64868 0.90927 1.32392 0
M  V30 23 C -4.69945 0.825717 -0.00481587 0
M  V30 24 N -3.65955 0.254552 -0.675791 0
M  V30 25 N -5.81035 1.31871 -0.721387 0
M  V30 26 C -6.92249 1.92942 -0.0438992 0
M  V30 27 C -5.8783 1.23043 -2.16895 0
M  V30 28 H 2.84667 -2.98533 0.332766 0
M  V30 29 H 2.30738 0.488429 -1.11074 0
M  V30 30 H 3.81523 2.35137 -0.69481 0
M  V30 31 H 6.40137 -0.18964 1.47917 0
M  V30 32 H 4.86678 -2.10696 1.04626 0
M  V30 33 H 8.36913 3.00277 -0.0693866 0
M  V30 34 H 7.61376 1.79413 -0.9464 0
M  V30 35 H 1.55541 -4.22327 -1.89568 0
M  V30 36 H 0.852247 -4.03039 -0.268109 0
M  V30 37 H -0.791988 -4.52298 -2.1311 0
M  V30 38 H -0.375636 -2.97581 -2.93733 0
M  V30 39 H -1.33014 -0.370306 -1.74425 0
M  V30 40 H -0.556869 -0.577828 -0.132023 0
M  V30 41 H -2.71987 0.902758 3.92874 0
M  V30 42 H -4.43986 0.281934 3.94526 0
M  V30 43 H -7.88266 1.52955 -0.433952 0
M  V30 44 H -6.96372 3.03684 -0.205507 0
M  V30 45 H -6.91527 1.6976 1.05596 0
M  V30 46 H -6.84706 0.744273 -2.43392 0
M  V30 47 H -5.01492 0.665038 -2.58592 0
M  V30 48 H -5.94082 2.26126 -2.58324 0
M  V30 END ATOM
M  V30 BEGIN BOND
M  V30 1 2 1 2
M  V30 2 1 2 3
M  V30 3 1 3 4
M  V30 4 2 4 5
M  V30 5 1 5 6
M  V30 6 2 6 7
M  V30 7 1 7 8
M  V30 8 2 8 9
M  V30 9 1 7 10
M  V30 10 2 10 11
M  V30 11 2 10 12
M  V30 12 1 10 13
M  V30 13 1 2 14
M  V30 14 1 14 15
M  V30 15 1 15 16
M  V30 16 1 16 17
M  V30 17 1 17 18
M  V30 18 2 18 19
M  V30 19 1 19 20
M  V30 20 1 20 21
M  V30 21 2 20 22
M  V30 22 1 22 23
M  V30 23 2 23 24
M  V30 24 1 23 25
M  V30 25 1 25 26
M  V30 26 1 25 27
M  V30 27 1 9 4
M  V30 28 1 24 18
M  V30 29 1 3 28
M  V30 30 1 5 29
M  V30 31 1 6 30
M  V30 32 1 8 31
M  V30 33 1 9 32
M  V30 34 1 13 33
M  V30 35 1 13 34
M  V30 36 1 14 35
M  V30 37 1 14 36
M  V30 38 1 15 37
M  V30 39 1 15 38
M  V30 40 1 17 39
M  V30 41 1 17 40
M  V30 42 1 21 41
M  V30 43 1 21 42
M  V30 44 1 26 43
M  V30 45 1 26 44
M  V30 46 1 26 45
M  V30 47 1 27 46
M  V30 48 1 27 47
M  V30 49 1 27 48
M  V30 END BOND
M  V30 END CTAB
M  END
