
     RDKit          3D

  0  0  0  0  0  0  0  0  0  0999 V3000
M  V30 BEGIN CTAB
M  V30 COUNTS 52 53 0 0 0
M  V30 BEGIN ATOM
M  V30 1 N 5.62663 -0.150762 0.122885 0
M  V30 2 C 5.80496 1.23424 -0.105711 0
M  V30 3 C 4.61848 2.11361 -0.131093 0
M  V30 4 C 3.60832 1.82689 -1.18358 0
M  V30 5 C 2.91495 0.52311 -1.11895 0
M  V30 6 C 2.11535 0.333378 0.164314 0 CFG=2
M  V30 7 C 1.45767 -0.989177 0.160042 0
M  V30 8 O 2.27316 -1.96844 -0.047151 0
M  V30 9 N 0.0847492 -1.25144 0.353878 0
M  V30 10 C -0.35274 -2.63512 0.311286 0
M  V30 11 C -1.40591 -2.80278 -0.767556 0
M  V30 12 C -2.46139 -1.75519 -0.58338 0 CFG=1
M  V30 13 C -2.30457 -0.942012 0.646991 0 CFG=1
M  V30 14 C -0.930425 -0.25717 0.592563 0
M  V30 15 N -3.34521 0.0203374 0.869178 0
M  V30 16 C -3.4149 1.15779 0.161214 0
M  V30 17 C -4.3993 2.10567 0.346174 0
M  V30 18 C -5.33472 1.82442 1.3181 0
M  V30 19 O -6.24339 2.65658 1.51765 0
M  V30 20 N -5.25641 0.670678 2.02976 0
M  V30 21 C -4.27717 -0.216571 1.8083 0
M  V30 22 O -4.26909 -1.26882 2.51032 0
M  V30 23 C -2.54323 -0.962575 -1.86039 0
M  V30 24 O -3.70228 -2.43095 -0.482296 0
M  V30 25 N 1.2256 1.43729 0.397303 0
M  V30 26 H 6.32004 -0.74181 -0.383732 0
M  V30 27 H 5.53262 -0.357123 1.11749 0
M  V30 28 H 6.57559 1.62586 0.625605 0
M  V30 29 H 6.28003 1.31474 -1.14069 0
M  V30 30 H 5.00436 3.16685 -0.306111 0
M  V30 31 H 4.12891 2.20919 0.877528 0
M  V30 32 H 4.15545 1.83541 -2.18706 0
M  V30 33 H 2.89649 2.69227 -1.30292 0
M  V30 34 H 3.6117 -0.309009 -1.25694 0
M  V30 35 H 2.20377 0.420139 -2.00546 0
M  V30 36 H 2.83853 0.333191 0.999758 0
M  V30 37 H 0.487422 -3.30781 -0.00370109 0
M  V30 38 H -0.744305 -2.89859 1.29813 0
M  V30 39 H -1.84089 -3.80209 -0.629879 0
M  V30 40 H -0.94481 -2.77413 -1.77769 0
M  V30 41 H -2.28533 -1.62646 1.53758 0
M  V30 42 H -0.97534 0.372462 -0.317686 0
M  V30 43 H -0.773852 0.329904 1.52139 0
M  V30 44 H -2.67764 1.40111 -0.621433 0
M  V30 45 H -4.4221 3.00673 -0.241679 0
M  V30 46 H -6.00284 0.512665 2.76057 0
M  V30 47 H -3.51809 -0.429162 -1.98376 0
M  V30 48 H -1.66775 -0.34526 -2.08348 0
M  V30 49 H -2.56619 -1.7359 -2.6874 0
M  V30 50 H -3.64296 -3.16887 0.173887 0
M  V30 51 H 1.3729 1.89156 1.32419 0
M  V30 52 H 1.16514 2.11114 -0.394358 0
M  V30 END ATOM
M  V30 BEGIN BOND
M  V30 1 1 1 2
M  V30 2 1 2 3
M  V30 3 1 3 4
M  V30 4 1 4 5
M  V30 5 1 5 6
M  V30 6 1 6 7
M  V30 7 2 7 8
M  V30 8 1 7 9
M  V30 9 1 9 10
M  V30 10 1 10 11
M  V30 11 1 11 12
M  V30 12 1 12 13
M  V30 13 1 13 14
M  V30 14 1 13 15
M  V30 15 1 15 16
M  V30 16 2 16 17
M  V30 17 1 17 18
M  V30 18 2 18 19
M  V30 19 1 18 20
M  V30 20 1 20 21
M  V30 21 2 21 22
M  V30 22 1 12 23
M  V30 23 1 12 24 CFG=1
M  V30 24 1 6 25
M  V30 25 1 14 9
M  V30 26 1 21 15
M  V30 27 1 1 26
M  V30 28 1 1 27
M  V30 29 1 2 28
M  V30 30 1 2 29
M  V30 31 1 3 30
M  V30 32 1 3 31
M  V30 33 1 4 32
M  V30 34 1 4 33
M  V30 35 1 5 34
M  V30 36 1 5 35
M  V30 37 1 6 36 CFG=1
M  V30 38 1 10 37
M  V30 39 1 10 38
M  V30 40 1 11 39
M  V30 41 1 11 40
M  V30 42 1 13 41 CFG=1
M  V30 43 1 14 42
M  V30 44 1 14 43
M  V30 45 1 16 44
M  V30 46 1 17 45
M  V30 47 1 20 46
M  V30 48 1 23 47
M  V30 49 1 23 48
M  V30 50 1 23 49
M  V30 51 1 24 50
M  V30 52 1 25 51
M  V30 53 1 25 52
M  V30 END BOND
M  V30 END CTAB
M  END
