
     RDKit          3D

  0  0  0  0  0  0  0  0  0  0999 V3000
M  V30 BEGIN CTAB
M  V30 COUNTS 38 41 0 0 0
M  V30 BEGIN ATOM
M  V30 1 N -5.26339 2.19981 1.59869 0
M  V30 2 C -4.10668 1.99195 1.53346 0
M  V30 3 C -2.66426 1.77911 1.45584 0
M  V30 4 C -1.84279 2.60366 2.19552 0
M  V30 5 N -2.44243 3.56149 3.0436 0
M  V30 6 N -0.540122 2.40837 2.03139 0
M  V30 7 C -0.0602837 1.45685 1.19096 0
M  V30 8 C -0.822002 0.599995 0.426332 0
M  V30 9 C -2.19762 0.795345 0.58696 0
M  V30 10 C -3.24953 -0.0271472 -0.053439 0
M  V30 11 C -4.2589 -0.691221 0.653221 0
M  V30 12 C -5.10022 -1.44236 -0.0500079 0
M  V30 13 C -4.92622 -1.51781 -1.40217 0
M  V30 14 S -3.57183 -0.520145 -1.64408 0
M  V30 15 C -0.136877 -0.282067 -0.319429 0
M  V30 16 N -0.68898 -1.33008 -1.16689 0
M  V30 17 C 1.24662 -0.250315 -0.260288 0
M  V30 18 S 1.53984 1.01065 0.839748 0
M  V30 19 C 2.20342 -1.08267 -0.993407 0
M  V30 20 O 1.78628 -1.92828 -1.80446 0
M  V30 21 C 3.6124 -0.935027 -0.792395 0
M  V30 22 C 4.45354 -1.19436 -1.89588 0
M  V30 23 C 5.81545 -1.09783 -1.77959 0
M  V30 24 C 6.42309 -0.746938 -0.592898 0
M  V30 25 C 5.63845 -0.488751 0.497901 0
M  V30 26 C 4.25039 -0.589884 0.370603 0
M  V30 27 H -2.21973 4.56438 2.89538 0
M  V30 28 H -3.09652 3.31566 3.81035 0
M  V30 29 H -4.30081 -0.590623 1.76116 0
M  V30 30 H -5.93989 -2.01112 0.416921 0
M  V30 31 H -5.53792 -2.0964 -2.1214 0
M  V30 32 H -0.635003 -1.28455 -2.18581 0
M  V30 33 H -1.11909 -2.12625 -0.664755 0
M  V30 34 H 4.00813 -1.47172 -2.83715 0
M  V30 35 H 6.48557 -1.2956 -2.62721 0
M  V30 36 H 7.52049 -0.675165 -0.525283 0
M  V30 37 H 6.08975 -0.210969 1.43998 0
M  V30 38 H 3.64769 -0.399994 1.25644 0
M  V30 END ATOM
M  V30 BEGIN BOND
M  V30 1 3 1 2
M  V30 2 1 2 3
M  V30 3 2 3 4
M  V30 4 1 4 5
M  V30 5 1 4 6
M  V30 6 2 6 7
M  V30 7 1 7 8
M  V30 8 2 8 9
M  V30 9 1 9 10
M  V30 10 2 10 11
M  V30 11 1 11 12
M  V30 12 2 12 13
M  V30 13 1 13 14
M  V30 14 1 8 15
M  V30 15 1 15 16
M  V30 16 2 15 17
M  V30 17 1 17 18
M  V30 18 1 17 19
M  V30 19 2 19 20
M  V30 20 1 19 21
M  V30 21 2 21 22
M  V30 22 1 22 23
M  V30 23 2 23 24
M  V30 24 1 24 25
M  V30 25 2 25 26
M  V30 26 1 9 3
M  V30 27 1 14 10
M  V30 28 1 26 21
M  V30 29 1 18 7
M  V30 30 1 5 27
M  V30 31 1 5 28
M  V30 32 1 11 29
M  V30 33 1 12 30
M  V30 34 1 13 31
M  V30 35 1 16 32
M  V30 36 1 16 33
M  V30 37 1 22 34
M  V30 38 1 23 35
M  V30 39 1 24 36
M  V30 40 1 25 37
M  V30 41 1 26 38
M  V30 END BOND
M  V30 END CTAB
M  END
