
     RDKit          3D

  0  0  0  0  0  0  0  0  0  0999 V3000
M  V30 BEGIN CTAB
M  V30 COUNTS 30 32 0 0 0
M  V30 BEGIN ATOM
M  V30 1 N 4.87634 0.4258 0.181167 0
M  V30 2 C 3.49102 0.114944 0.148976 0
M  V30 3 N 3.13034 -1.17441 0.227606 0
M  V30 4 C 1.82666 -1.49207 0.199164 0
M  V30 5 N 1.43422 -2.85881 0.282109 0
M  V30 6 C 0.852495 -0.470585 0.0872825 0
M  V30 7 C 1.24808 0.838804 0.00848845 0
M  V30 8 N 2.57322 1.0978 0.0420466 0
M  V30 9 C 0.243292 1.91558 -0.111358 0
M  V30 10 C -0.84387 1.34234 -1.03078 0
M  V30 11 C -1.47511 0.222009 -0.251148 0
M  V30 12 C -0.54056 -0.910966 0.0670441 0
M  V30 13 O -2.00812 0.790599 0.906708 0
M  V30 14 C -3.38824 0.839386 0.752308 0
M  V30 15 C -3.61338 -0.424886 -0.087764 0
M  V30 16 O -2.53744 -0.326333 -0.966671 0
M  V30 17 H 5.42778 0.608307 1.02501 0
M  V30 18 H 5.40108 0.477687 -0.737909 0
M  V30 19 H 1.31755 -3.35928 -0.630074 0
M  V30 20 H 1.26696 -3.35535 1.17318 0
M  V30 21 H -0.271278 2.1347 0.854672 0
M  V30 22 H 0.695647 2.82109 -0.519241 0
M  V30 23 H -0.388557 0.911678 -1.93627 0
M  V30 24 H -1.61418 2.08037 -1.24968 0
M  V30 25 H -0.816979 -1.31057 1.09109 0
M  V30 26 H -0.654861 -1.76173 -0.654366 0
M  V30 27 H -3.62396 1.71853 0.122674 0
M  V30 28 H -3.93526 0.800296 1.6937 0
M  V30 29 H -3.4877 -1.30958 0.554077 0
M  V30 30 H -4.58517 -0.385358 -0.606568 0
M  V30 END ATOM
M  V30 BEGIN BOND
M  V30 1 1 1 2
M  V30 2 2 2 3
M  V30 3 1 3 4
M  V30 4 1 4 5
M  V30 5 2 4 6
M  V30 6 1 6 7
M  V30 7 2 7 8
M  V30 8 1 7 9
M  V30 9 1 9 10
M  V30 10 1 10 11
M  V30 11 1 11 12
M  V30 12 1 11 13
M  V30 13 1 13 14
M  V30 14 1 14 15
M  V30 15 1 15 16
M  V30 16 1 8 2
M  V30 17 1 16 11
M  V30 18 1 12 6
M  V30 19 1 1 17
M  V30 20 1 1 18
M  V30 21 1 5 19
M  V30 22 1 5 20
M  V30 23 1 9 21
M  V30 24 1 9 22
M  V30 25 1 10 23
M  V30 26 1 10 24
M  V30 27 1 12 25
M  V30 28 1 12 26
M  V30 29 1 14 27
M  V30 30 1 14 28
M  V30 31 1 15 29
M  V30 32 1 15 30
M  V30 END BOND
M  V30 END CTAB
M  END
