
     RDKit          3D

  0  0  0  0  0  0  0  0  0  0999 V3000
M  V30 BEGIN CTAB
M  V30 COUNTS 24 24 0 0 0
M  V30 BEGIN ATOM
M  V30 1 N 4.34706 1.79794 -0.00709007 0
M  V30 2 C 3.5478 0.791925 0.0420972 0
M  V30 3 N 4.08883 -0.520885 0.0356033 0
M  V30 4 N 2.13745 0.929477 0.103208 0
M  V30 5 C 1.2536 -0.173602 0.157477 0
M  V30 6 O 1.74515 -1.32946 0.151057 0
M  V30 7 C -0.1857 -0.0420144 0.219961 0
M  V30 8 N -0.802056 1.17681 0.231046 0
M  V30 9 C -2.13787 1.30127 0.289011 0
M  V30 10 C -2.92519 0.169735 0.339425 0
M  V30 11 C -4.40519 0.342321 0.403259 0
M  V30 12 N -2.34565 -1.03963 0.329851 0
M  V30 13 C -1.00635 -1.14854 0.271519 0
M  V30 14 N -0.372653 -2.44071 0.260679 0
M  V30 15 H 3.9424 2.76533 -0.00204525 0
M  V30 16 H 4.1705 -1.03709 0.937128 0
M  V30 17 H 4.41362 -1.00255 -0.837964 0
M  V30 18 H 1.76949 1.91988 0.106363 0
M  V30 19 H -2.63325 2.27682 0.297942 0
M  V30 20 H -4.71341 0.292233 1.45592 0
M  V30 21 H -4.90202 -0.455895 -0.221203 0
M  V30 22 H -4.72713 1.30036 -0.0224306 0
M  V30 23 H -0.0382963 -2.90275 1.13175 0
M  V30 24 H -0.221158 -2.97097 -0.625018 0
M  V30 END ATOM
M  V30 BEGIN BOND
M  V30 1 2 1 2 CFG=2
M  V30 2 1 2 3
M  V30 3 1 2 4
M  V30 4 1 4 5
M  V30 5 2 5 6
M  V30 6 1 5 7
M  V30 7 2 7 8
M  V30 8 1 8 9
M  V30 9 2 9 10
M  V30 10 1 10 11
M  V30 11 1 10 12
M  V30 12 2 12 13
M  V30 13 1 13 14
M  V30 14 1 13 7
M  V30 15 1 1 15
M  V30 16 1 3 16
M  V30 17 1 3 17
M  V30 18 1 4 18
M  V30 19 1 9 19
M  V30 20 1 11 20
M  V30 21 1 11 21
M  V30 22 1 11 22
M  V30 23 1 14 23
M  V30 24 1 14 24
M  V30 END BOND
M  V30 END CTAB
M  END
