
     RDKit          3D

  0  0  0  0  0  0  0  0  0  0999 V3000
M  V30 BEGIN CTAB
M  V30 COUNTS 32 34 0 0 0
M  V30 BEGIN ATOM
M  V30 1 C -0.0706117 2.33062 1.30276 0
M  V30 2 N -0.0770876 1.07635 0.537582 0
M  V30 3 C -1.268 0.468463 0.115391 0
M  V30 4 C -1.38357 -0.69355 -0.609439 0
M  V30 5 C -2.59663 -1.22276 -0.976327 0
M  V30 6 C -3.78888 -0.635734 -0.649833 0
M  V30 7 N -5.04074 -1.2061 -1.0436 0
M  V30 8 C -3.71473 0.522953 0.0716643 0
M  V30 9 C -2.48539 1.06227 0.445434 0
M  V30 10 S 0.0720796 -1.52793 -1.0821 0
M  V30 11 O 0.147286 -1.6122 -2.59857 0
M  V30 12 O 0.115835 -2.89776 -0.47251 0
M  V30 13 C 1.41275 -0.615608 -0.453517 0
M  V30 14 C 1.22969 0.53332 0.251844 0
M  V30 15 C 2.36788 1.19509 0.714206 0
M  V30 16 C 3.61505 0.697371 0.461105 0
M  V30 17 C 3.80771 -0.462681 -0.250776 0
M  V30 18 N 5.12181 -0.968004 -0.50557 0
M  V30 19 C 2.68001 -1.10271 -0.699015 0
M  V30 20 H 0.563332 3.08829 0.744878 0
M  V30 21 H 0.444752 2.10871 2.26076 0
M  V30 22 H -1.01983 2.80264 1.44519 0
M  V30 23 H -2.61941 -2.1415 -1.54721 0
M  V30 24 H -5.14873 -2.2365 -1.00051 0
M  V30 25 H -5.85184 -0.646303 -1.3717 0
M  V30 26 H -4.65246 1.00581 0.341571 0
M  V30 27 H -2.56369 1.97263 1.0116 0
M  V30 28 H 2.22389 2.11543 1.28302 0
M  V30 29 H 4.46597 1.25138 0.843456 0
M  V30 30 H 5.65451 -0.481989 -1.25779 0
M  V30 31 H 5.54467 -1.75952 0.0031812 0
M  V30 32 H 2.81438 -2.02046 -1.26294 0
M  V30 END ATOM
M  V30 BEGIN BOND
M  V30 1 1 1 2
M  V30 2 1 2 3
M  V30 3 2 3 4
M  V30 4 1 4 5
M  V30 5 2 5 6
M  V30 6 1 6 7
M  V30 7 1 6 8
M  V30 8 2 8 9
M  V30 9 1 4 10
M  V30 10 2 10 11
M  V30 11 2 10 12
M  V30 12 1 10 13
M  V30 13 2 13 14
M  V30 14 1 14 15
M  V30 15 2 15 16
M  V30 16 1 16 17
M  V30 17 1 17 18
M  V30 18 2 17 19
M  V30 19 1 14 2
M  V30 20 1 9 3
M  V30 21 1 19 13
M  V30 22 1 1 20
M  V30 23 1 1 21
M  V30 24 1 1 22
M  V30 25 1 5 23
M  V30 26 1 7 24
M  V30 27 1 7 25
M  V30 28 1 8 26
M  V30 29 1 9 27
M  V30 30 1 15 28
M  V30 31 1 16 29
M  V30 32 1 18 30
M  V30 33 1 18 31
M  V30 34 1 19 32
M  V30 END BOND
M  V30 END CTAB
M  END
