
     RDKit          3D

  0  0  0  0  0  0  0  0  0  0999 V3000
M  V30 BEGIN CTAB
M  V30 COUNTS 21 21 0 0 0
M  V30 BEGIN ATOM
M  V30 1 N 2.46208 -2.76952 1.03146 0
M  V30 2 C 2.03016 -2.23719 0.0845956 0
M  V30 3 C 1.5038 -1.56497 -1.11999 0
M  V30 4 C 1.22101 -0.138322 -0.830452 0
M  V30 5 N 1.98789 0.926198 -1.17762 0
M  V30 6 N 1.42552 2.0376 -0.743753 0
M  V30 7 C 0.286747 1.77892 -0.103175 0
M  V30 8 C 0.145786 0.375716 -0.154067 0
M  V30 9 C -0.99215 -0.289419 0.436285 0
M  V30 10 N -1.93527 0.350191 1.05126 0
M  V30 11 O -3.02132 -0.2822 1.61511 0
M  V30 12 N -1.13418 -1.69024 0.364885 0
M  V30 13 N -0.606113 2.70046 0.505624 0
M  V30 14 H 2.30586 -1.6727 -1.88853 0
M  V30 15 H 0.647021 -2.12413 -1.49066 0
M  V30 16 H 1.84034 3.004 -0.894529 0
M  V30 17 H -3.91806 -0.0792331 1.20328 0
M  V30 18 H -1.50644 -2.09696 -0.516798 0
M  V30 19 H -0.894296 -2.32078 1.14178 0
M  V30 20 H -0.281642 3.266 1.31848 0
M  V30 21 H -1.56675 2.82658 0.16682 0
M  V30 END ATOM
M  V30 BEGIN BOND
M  V30 1 3 1 2
M  V30 2 1 2 3
M  V30 3 1 3 4
M  V30 4 2 4 5
M  V30 5 1 5 6
M  V30 6 1 6 7
M  V30 7 2 7 8
M  V30 8 1 8 9
M  V30 9 2 9 10
M  V30 10 1 10 11
M  V30 11 1 9 12
M  V30 12 1 7 13
M  V30 13 1 8 4
M  V30 14 1 3 14
M  V30 15 1 3 15
M  V30 16 1 6 16
M  V30 17 1 11 17
M  V30 18 1 12 18
M  V30 19 1 12 19
M  V30 20 1 13 20
M  V30 21 1 13 21
M  V30 END BOND
M  V30 END CTAB
M  END
