
     RDKit          3D

  0  0  0  0  0  0  0  0  0  0999 V3000
M  V30 BEGIN CTAB
M  V30 COUNTS 27 28 0 0 0
M  V30 BEGIN ATOM
M  V30 1 N 4.39864 -0.128549 0.0545509 0
M  V30 2 N 3.05918 -0.524652 0.0060125 0
M  V30 3 C 2.5868 -1.78248 -0.23319 0
M  V30 4 N 1.2443 -1.78527 -0.204974 0
M  V30 5 C 0.80909 -0.518355 0.0554343 0
M  V30 6 C 1.95803 0.228512 0.179075 0
M  V30 7 N 1.99179 1.62312 0.455143 0
M  V30 8 C -0.612721 -0.0847153 0.172101 0
M  V30 9 C -1.54299 -1.20141 -0.158966 0
M  V30 10 C -2.96197 -0.745434 -0.197371 0
M  V30 11 C -3.12114 0.608457 -0.815163 0
M  V30 12 C -2.11441 1.55829 -0.213875 0
M  V30 13 O -0.846313 1.06655 -0.542073 0
M  V30 14 H 5.06835 -0.34324 -0.696017 0
M  V30 15 H 4.74148 0.413361 0.887678 0
M  V30 16 H 3.22426 -2.64321 -0.418192 0
M  V30 17 H 2.31621 2.31182 -0.258021 0
M  V30 18 H 1.68386 1.96312 1.39108 0
M  V30 19 H -0.775191 0.158853 1.25609 0
M  V30 20 H -1.24855 -1.58736 -1.16753 0
M  V30 21 H -1.42446 -1.99482 0.615837 0
M  V30 22 H -3.40478 -0.771065 0.820373 0
M  V30 23 H -3.52506 -1.5265 -0.790818 0
M  V30 24 H -2.88314 0.546932 -1.91686 0
M  V30 25 H -4.16634 0.96437 -0.669868 0
M  V30 26 H -2.26775 2.5603 -0.704841 0
M  V30 27 H -2.18718 1.63337 0.876783 0
M  V30 END ATOM
M  V30 BEGIN BOND
M  V30 1 1 1 2
M  V30 2 1 2 3
M  V30 3 2 3 4
M  V30 4 1 4 5
M  V30 5 2 5 6
M  V30 6 1 6 7
M  V30 7 1 5 8
M  V30 8 1 8 9
M  V30 9 1 9 10
M  V30 10 1 10 11
M  V30 11 1 11 12
M  V30 12 1 12 13
M  V30 13 1 6 2
M  V30 14 1 13 8
M  V30 15 1 1 14
M  V30 16 1 1 15
M  V30 17 1 3 16
M  V30 18 1 7 17
M  V30 19 1 7 18
M  V30 20 1 8 19
M  V30 21 1 9 20
M  V30 22 1 9 21
M  V30 23 1 10 22
M  V30 24 1 10 23
M  V30 25 1 11 24
M  V30 26 1 11 25
M  V30 27 1 12 26
M  V30 28 1 12 27
M  V30 END BOND
M  V30 END CTAB
M  END
