
     RDKit          3D

  0  0  0  0  0  0  0  0  0  0999 V3000
M  V30 BEGIN CTAB
M  V30 COUNTS 30 31 0 0 0
M  V30 BEGIN ATOM
M  V30 1 N 4.35993 1.67331 -0.179633 0
M  V30 2 C 3.20362 0.829669 -0.168483 0
M  V30 3 N 3.26541 -0.435108 -0.583965 0
M  V30 4 C 2.2027 -1.27102 -0.593043 0
M  V30 5 C 0.999724 -0.79941 -0.15422 0
M  V30 6 C 0.920218 0.508744 0.279494 0
M  V30 7 N 2.01786 1.31427 0.270429 0
M  V30 8 C -0.412112 0.957631 0.749124 0
M  V30 9 C -1.56361 0.511087 -0.0839634 0
M  V30 10 C -1.25582 -0.72331 -0.880155 0
M  V30 11 C -0.269205 -1.56119 -0.0966234 0
M  V30 12 N -0.159595 -2.87158 -0.693011 0
M  V30 13 C -1.97612 1.5793 -1.09822 0
M  V30 14 C -2.78727 0.172296 0.769794 0
M  V30 15 H 4.88945 1.90655 -1.04371 0
M  V30 16 H 4.66415 2.05992 0.741231 0
M  V30 17 H 2.26051 -2.2837 -0.927746 0
M  V30 18 H -0.498022 0.577264 1.80942 0
M  V30 19 H -0.401724 2.06928 0.797894 0
M  V30 20 H -0.762897 -0.381415 -1.83109 0
M  V30 21 H -2.15645 -1.29487 -1.16759 0
M  V30 22 H -0.591327 -1.58543 0.961102 0
M  V30 23 H 0.625618 -3.4123 -0.294813 0
M  V30 24 H -1.06682 -3.35301 -0.549563 0
M  V30 25 H -2.52174 2.39992 -0.555105 0
M  V30 26 H -2.61452 1.10929 -1.8566 0
M  V30 27 H -1.06256 2.01852 -1.5089 0
M  V30 28 H -3.48117 1.04324 0.842173 0
M  V30 29 H -2.48565 -0.060684 1.81575 0
M  V30 30 H -3.34257 -0.697259 0.346027 0
M  V30 END ATOM
M  V30 BEGIN BOND
M  V30 1 1 1 2
M  V30 2 2 2 3
M  V30 3 1 3 4
M  V30 4 2 4 5
M  V30 5 1 5 6
M  V30 6 2 6 7
M  V30 7 1 6 8
M  V30 8 1 8 9
M  V30 9 1 9 10
M  V30 10 1 10 11
M  V30 11 1 11 12
M  V30 12 1 9 13
M  V30 13 1 9 14
M  V30 14 1 7 2
M  V30 15 1 11 5
M  V30 16 1 1 15
M  V30 17 1 1 16
M  V30 18 1 4 17
M  V30 19 1 8 18
M  V30 20 1 8 19
M  V30 21 1 10 20
M  V30 22 1 10 21
M  V30 23 1 11 22
M  V30 24 1 12 23
M  V30 25 1 12 24
M  V30 26 1 13 25
M  V30 27 1 13 26
M  V30 28 1 13 27
M  V30 29 1 14 28
M  V30 30 1 14 29
M  V30 31 1 14 30
M  V30 END BOND
M  V30 END CTAB
M  END
