
     RDKit          3D

  0  0  0  0  0  0  0  0  0  0999 V3000
M  V30 BEGIN CTAB
M  V30 COUNTS 44 45 0 0 0
M  V30 BEGIN ATOM
M  V30 1 N -4.61245 -3.18878 -0.745007 0
M  V30 2 C -4.68619 -1.89786 -1.40651 0
M  V30 3 C -3.28751 -1.39618 -1.61308 0
M  V30 4 C -2.56846 -1.24424 -0.274184 0
M  V30 5 N -1.21211 -0.755506 -0.498244 0
M  V30 6 C -0.195323 -1.70004 -0.68135 0
M  V30 7 O -0.504758 -2.96145 -0.658484 0
M  V30 8 C 1.23857 -1.41827 -0.903962 0
M  V30 9 C 2.16123 -2.42198 -1.07841 0
M  V30 10 S 3.61664 -1.52379 -1.28855 0
M  V30 11 C 2.96892 0.0423213 -1.14351 0
M  V30 12 N 1.69445 -0.197171 -0.945151 0
M  V30 13 C 3.70525 1.33782 -1.2285 0
M  V30 14 C 4.20485 1.79058 0.111941 0
M  V30 15 N 5.10286 0.799753 0.655105 0
M  V30 16 C -1.02461 0.653421 -0.534845 0
M  V30 17 C -0.62429 1.23261 0.778942 0
M  V30 18 C -0.60468 0.52387 1.95799 0
M  V30 19 C -0.221737 1.13337 3.13434 0
M  V30 20 C 0.150935 2.46553 3.16179 0
M  V30 21 C 0.129452 3.16835 1.98143 0
M  V30 22 C -0.255421 2.55448 0.801107 0
M  V30 23 H -4.36752 -3.13314 0.251546 0
M  V30 24 H -4.10529 -3.89262 -1.2993 0
M  V30 25 H -5.11875 -2.0813 -2.42348 0
M  V30 26 H -5.25568 -1.16426 -0.83107 0
M  V30 27 H -2.7202 -2.20825 -2.15079 0
M  V30 28 H -3.20207 -0.501701 -2.22788 0
M  V30 29 H -3.09085 -0.491796 0.342798 0
M  V30 30 H -2.55763 -2.19321 0.283892 0
M  V30 31 H 2.0251 -3.51985 -1.08535 0
M  V30 32 H 4.49431 1.28825 -2.00667 0
M  V30 33 H 2.95699 2.08441 -1.62286 0
M  V30 34 H 4.72365 2.75364 -0.0338813 0
M  V30 35 H 3.32499 1.92493 0.766605 0
M  V30 36 H 4.61029 0.286402 1.41708 0
M  V30 37 H 5.95023 1.22761 1.08885 0
M  V30 38 H -0.37039 1.01256 -1.33232 0
M  V30 39 H -2.01304 1.18628 -0.75229 0
M  V30 40 H -0.900223 -0.536373 1.94195 0
M  V30 41 H -0.198748 0.596655 4.07179 0
M  V30 42 H 0.456978 2.96217 4.08749 0
M  V30 43 H 0.425531 4.21893 2.01504 0
M  V30 44 H -0.243303 3.1838 -0.084014 0
M  V30 END ATOM
M  V30 BEGIN BOND
M  V30 1 1 1 2
M  V30 2 1 2 3
M  V30 3 1 3 4
M  V30 4 1 4 5
M  V30 5 1 5 6
M  V30 6 2 6 7
M  V30 7 1 6 8
M  V30 8 2 8 9
M  V30 9 1 9 10
M  V30 10 1 10 11
M  V30 11 2 11 12
M  V30 12 1 11 13
M  V30 13 1 13 14
M  V30 14 1 14 15
M  V30 15 1 5 16
M  V30 16 1 16 17
M  V30 17 2 17 18
M  V30 18 1 18 19
M  V30 19 2 19 20
M  V30 20 1 20 21
M  V30 21 2 21 22
M  V30 22 1 12 8
M  V30 23 1 22 17
M  V30 24 1 1 23
M  V30 25 1 1 24
M  V30 26 1 2 25
M  V30 27 1 2 26
M  V30 28 1 3 27
M  V30 29 1 3 28
M  V30 30 1 4 29
M  V30 31 1 4 30
M  V30 32 1 9 31
M  V30 33 1 13 32
M  V30 34 1 13 33
M  V30 35 1 14 34
M  V30 36 1 14 35
M  V30 37 1 15 36
M  V30 38 1 15 37
M  V30 39 1 16 38
M  V30 40 1 16 39
M  V30 41 1 18 40
M  V30 42 1 19 41
M  V30 43 1 20 42
M  V30 44 1 21 43
M  V30 45 1 22 44
M  V30 END BOND
M  V30 END CTAB
M  END
