
     RDKit          3D

  0  0  0  0  0  0  0  0  0  0999 V3000
M  V30 BEGIN CTAB
M  V30 COUNTS 20 19 0 0 0
M  V30 BEGIN ATOM
M  V30 1 C -2.23813 1.26625 -0.216497 0
M  V30 2 C -1.75723 -0.145285 -0.195527 0
M  V30 3 C -1.04106 -0.52501 1.06582 0
M  V30 4 S 0.420554 0.451944 1.40257 0
M  V30 5 C 1.70541 0.170484 0.193766 0
M  V30 6 N 2.83202 0.774939 0.251547 0
M  V30 7 N 3.82392 0.544019 -0.69993 0
M  V30 8 N 1.428 -0.758256 -0.843605 0
M  V30 9 O -2.88668 -0.990105 -0.278431 0
M  V30 10 H -3.19292 1.29517 -0.795953 0
M  V30 11 H -1.55555 1.96362 -0.738173 0
M  V30 12 H -2.50063 1.60606 0.809833 0
M  V30 13 H -1.12573 -0.383101 -1.06042 0
M  V30 14 H -0.703624 -1.59236 0.926335 0
M  V30 15 H -1.70205 -0.551711 1.95422 0
M  V30 16 H 4.69666 1.10615 -0.738657 0
M  V30 17 H 3.73222 -0.21646 -1.42851 0
M  V30 18 H 0.97761 -1.66228 -0.589636 0
M  V30 19 H 1.69224 -0.484343 -1.81872 0
M  V30 20 H -2.60504 -1.86973 0.0713243 0
M  V30 END ATOM
M  V30 BEGIN BOND
M  V30 1 1 1 2
M  V30 2 1 2 3
M  V30 3 1 3 4
M  V30 4 1 4 5
M  V30 5 2 5 6 CFG=2
M  V30 6 1 6 7
M  V30 7 1 5 8
M  V30 8 1 2 9
M  V30 9 1 1 10
M  V30 10 1 1 11
M  V30 11 1 1 12
M  V30 12 1 2 13
M  V30 13 1 3 14
M  V30 14 1 3 15
M  V30 15 1 7 16
M  V30 16 1 7 17
M  V30 17 1 8 18
M  V30 18 1 8 19
M  V30 19 1 9 20
M  V30 END BOND
M  V30 END CTAB
M  END
