
     RDKit          3D

  0  0  0  0  0  0  0  0  0  0999 V3000
M  V30 BEGIN CTAB
M  V30 COUNTS 26 26 0 0 0
M  V30 BEGIN ATOM
M  V30 1 C -3.8975 0.255457 0.359092 0
M  V30 2 C -2.99955 -0.366393 -0.733673 0
M  V30 3 C -1.96597 -1.25997 -0.0393688 0
M  V30 4 S -0.981482 -0.253551 1.03352 0
M  V30 5 C 0.689317 0.0121441 0.550416 0
M  V30 6 C 1.17918 0.79445 -0.449617 0
M  V30 7 C 2.53523 0.939579 -0.709587 0
M  V30 8 C 3.48567 0.263474 0.0755014 0
M  V30 9 C 3.00989 -0.534481 1.09059 0
M  V30 10 C 1.66908 -0.666453 1.32714 0
M  V30 11 Cl 4.20794 -1.39888 2.07961 0
M  V30 12 N 4.86889 0.355788 -0.146108 0
M  V30 13 N -2.46362 0.720776 -1.47627 0
M  V30 14 H -4.11045 -0.592734 1.07695 0
M  V30 15 H -4.78325 0.672707 -0.0848819 0
M  V30 16 H -3.23788 0.951817 0.912824 0
M  V30 17 H -3.62774 -0.989378 -1.38986 0
M  V30 18 H -2.51348 -2.02303 0.532812 0
M  V30 19 H -1.37634 -1.79237 -0.831578 0
M  V30 20 H 0.461797 1.32011 -1.07787 0
M  V30 21 H 2.95313 1.54024 -1.49187 0
M  V30 22 H 1.30707 -1.2955 2.11388 0
M  V30 23 H 5.36776 1.18893 -0.489243 0
M  V30 24 H 5.49559 -0.485397 0.0530465 0
M  V30 25 H -2.08067 1.4974 -0.869156 0
M  V30 26 H -3.19262 1.14528 -2.12074 0
M  V30 END ATOM
M  V30 BEGIN BOND
M  V30 1 1 1 2
M  V30 2 1 2 3
M  V30 3 1 3 4
M  V30 4 1 4 5
M  V30 5 2 5 6
M  V30 6 1 6 7
M  V30 7 2 7 8
M  V30 8 1 8 9
M  V30 9 2 9 10
M  V30 10 1 9 11
M  V30 11 1 8 12
M  V30 12 1 2 13
M  V30 13 1 10 5
M  V30 14 1 1 14
M  V30 15 1 1 15
M  V30 16 1 1 16
M  V30 17 1 2 17
M  V30 18 1 3 18
M  V30 19 1 3 19
M  V30 20 1 6 20
M  V30 21 1 7 21
M  V30 22 1 10 22
M  V30 23 1 12 23
M  V30 24 1 12 24
M  V30 25 1 13 25
M  V30 26 1 13 26
M  V30 END BOND
M  V30 END CTAB
M  END
