
     RDKit          3D

  0  0  0  0  0  0  0  0  0  0999 V3000
M  V30 BEGIN CTAB
M  V30 COUNTS 49 51 0 0 0
M  V30 BEGIN ATOM
M  V30 1 C -1.24796 2.22365 -2.85648 0
M  V30 2 O -2.37557 1.90756 -2.08095 0
M  V30 3 C -2.23902 1.34545 -0.82189 0
M  V30 4 C -0.998325 1.07671 -0.287888 0
M  V30 5 C -0.810924 0.522656 0.951294 0
M  V30 6 C 0.479559 0.224206 1.55193 0
M  V30 7 C 1.00868 -1.17045 1.37588 0
M  V30 8 C 2.33151 -1.20398 2.09783 0
M  V30 9 C 3.38618 -2.04424 1.43032 0
M  V30 10 C 3.58092 -1.5822 0.0143261 0
M  V30 11 N 4.78328 -1.41446 -0.552377 0
M  V30 12 C 4.89426 -0.993689 -1.84319 0
M  V30 13 N 6.16631 -0.814507 -2.44794 0
M  V30 14 N 3.74341 -0.763182 -2.49591 0
M  V30 15 C 2.51424 -0.919267 -1.96365 0
M  V30 16 N 1.33831 -0.652704 -2.73103 0
M  V30 17 C 2.40569 -1.34152 -0.668122 0
M  V30 18 C 1.08996 -1.5231 -0.055144 0
M  V30 19 C -1.95959 0.2248 1.68998 0
M  V30 20 C -3.21204 0.493443 1.15662 0
M  V30 21 O -4.34081 0.188193 1.9107 0
M  V30 22 C -4.23398 -0.38433 3.19601 0
M  V30 23 C -3.38278 1.05134 -0.0920238 0
M  V30 24 O -4.64306 1.31722 -0.618637 0
M  V30 25 C -5.26736 2.57881 -0.393382 0
M  V30 26 H -0.468803 2.71288 -2.25758 0
M  V30 27 H -0.923997 1.28674 -3.35275 0
M  V30 28 H -1.61851 2.92423 -3.65962 0
M  V30 29 H -0.0853714 1.29974 -0.845444 0
M  V30 30 H 0.511765 0.507956 2.65414 0
M  V30 31 H 1.28753 0.904119 1.12735 0
M  V30 32 H 0.272287 -1.83839 1.91554 0
M  V30 33 H 2.15375 -1.63925 3.10207 0
M  V30 34 H 2.72711 -0.200648 2.25179 0
M  V30 35 H 3.16746 -3.11237 1.41072 0
M  V30 36 H 4.32086 -1.89496 2.00812 0
M  V30 37 H 6.5475 -1.59185 -3.018 0
M  V30 38 H 6.72927 0.0496833 -2.34832 0
M  V30 39 H 1.22295 0.216621 -3.28969 0
M  V30 40 H 0.588696 -1.37923 -2.70633 0
M  V30 41 H 0.895957 -2.64883 -0.107561 0
M  V30 42 H 0.306296 -1.10367 -0.705086 0
M  V30 43 H -1.83838 -0.210214 2.66437 0
M  V30 44 H -5.22998 -0.494009 3.63693 0
M  V30 45 H -3.69204 0.363924 3.84298 0
M  V30 46 H -3.73529 -1.36564 3.19836 0
M  V30 47 H -6.15859 2.514 0.228694 0
M  V30 48 H -4.5394 3.23914 0.148467 0
M  V30 49 H -5.45197 3.11359 -1.36543 0
M  V30 END ATOM
M  V30 BEGIN BOND
M  V30 1 1 1 2
M  V30 2 1 2 3
M  V30 3 2 3 4
M  V30 4 1 4 5
M  V30 5 1 5 6
M  V30 6 1 6 7
M  V30 7 1 7 8
M  V30 8 1 8 9
M  V30 9 1 9 10
M  V30 10 2 10 11
M  V30 11 1 11 12
M  V30 12 1 12 13
M  V30 13 2 12 14
M  V30 14 1 14 15
M  V30 15 1 15 16
M  V30 16 2 15 17
M  V30 17 1 17 18
M  V30 18 2 5 19
M  V30 19 1 19 20
M  V30 20 1 20 21
M  V30 21 1 21 22
M  V30 22 2 20 23
M  V30 23 1 23 24
M  V30 24 1 24 25
M  V30 25 1 23 3
M  V30 26 1 18 7
M  V30 27 1 17 10
M  V30 28 1 1 26
M  V30 29 1 1 27
M  V30 30 1 1 28
M  V30 31 1 4 29
M  V30 32 1 6 30
M  V30 33 1 6 31
M  V30 34 1 7 32
M  V30 35 1 8 33
M  V30 36 1 8 34
M  V30 37 1 9 35
M  V30 38 1 9 36
M  V30 39 1 13 37
M  V30 40 1 13 38
M  V30 41 1 16 39
M  V30 42 1 16 40
M  V30 43 1 18 41
M  V30 44 1 18 42
M  V30 45 1 19 43
M  V30 46 1 22 44
M  V30 47 1 22 45
M  V30 48 1 22 46
M  V30 49 1 25 47
M  V30 50 1 25 48
M  V30 51 1 25 49
M  V30 END BOND
M  V30 END CTAB
M  END
