
     RDKit          3D

  0  0  0  0  0  0  0  0  0  0999 V3000
M  V30 BEGIN CTAB
M  V30 COUNTS 29 30 0 0 0
M  V30 BEGIN ATOM
M  V30 1 N -5.09558 -0.108636 -1.14561 0
M  V30 2 C -3.84267 0.0620735 -0.463852 0
M  V30 3 C -3.126 -1.0232 -0.00580824 0
M  V30 4 C -1.9278 -0.845158 0.644965 0
M  V30 5 C -1.37892 0.42136 0.874666 0
M  V30 6 C -2.10798 1.493 0.411288 0
M  V30 7 C -3.30958 1.31457 -0.241681 0
M  V30 8 S 0.130993 0.573098 1.72996 0
M  V30 9 O 0.268152 1.97179 2.32399 0
M  V30 10 O 0.0958642 -0.339419 2.95195 0
M  V30 11 C 1.52724 0.166332 0.790137 0
M  V30 12 C 1.86549 0.840853 -0.348203 0
M  V30 13 Cl 0.914547 2.18405 -0.940327 0
M  V30 14 C 2.98473 0.509978 -1.10511 0
M  V30 15 C 3.79765 -0.529427 -0.716067 0
M  V30 16 N 4.9442 -0.858064 -1.50356 0
M  V30 17 C 3.47599 -1.22077 0.425392 0
M  V30 18 C 2.37079 -0.886739 1.16406 0
M  V30 19 H -5.17858 -0.803525 -1.90912 0
M  V30 20 H -5.91296 0.477411 -0.857497 0
M  V30 21 H -3.5595 -2.00219 -0.188452 0
M  V30 22 H -1.37222 -1.71493 1.00169 0
M  V30 23 H -1.77142 2.50853 0.554556 0
M  V30 24 H -3.87252 2.18439 -0.602456 0
M  V30 25 H 3.22414 1.07468 -2.01361 0
M  V30 26 H 4.76398 -1.4505 -2.3437 0
M  V30 27 H 5.90085 -0.552624 -1.29313 0
M  V30 28 H 4.10514 -2.0304 0.73273 0
M  V30 29 H 2.08598 -1.41654 2.07802 0
M  V30 END ATOM
M  V30 BEGIN BOND
M  V30 1 1 1 2
M  V30 2 2 2 3
M  V30 3 1 3 4
M  V30 4 2 4 5
M  V30 5 1 5 6
M  V30 6 2 6 7
M  V30 7 1 5 8
M  V30 8 2 8 9
M  V30 9 2 8 10
M  V30 10 1 8 11
M  V30 11 2 11 12
M  V30 12 1 12 13
M  V30 13 1 12 14
M  V30 14 2 14 15
M  V30 15 1 15 16
M  V30 16 1 15 17
M  V30 17 2 17 18
M  V30 18 1 7 2
M  V30 19 1 18 11
M  V30 20 1 1 19
M  V30 21 1 1 20
M  V30 22 1 3 21
M  V30 23 1 4 22
M  V30 24 1 6 23
M  V30 25 1 7 24
M  V30 26 1 14 25
M  V30 27 1 16 26
M  V30 28 1 16 27
M  V30 29 1 17 28
M  V30 30 1 18 29
M  V30 END BOND
M  V30 END CTAB
M  END
