
     RDKit          3D

  0  0  0  0  0  0  0  0  0  0999 V3000
M  V30 BEGIN CTAB
M  V30 COUNTS 47 50 0 0 0
M  V30 BEGIN ATOM
M  V30 1 N -2.09617 3.76307 0.46783 0
M  V30 2 C -1.27709 3.40709 -0.29967 0
M  V30 3 C -0.290811 3.01031 -1.2397 0
M  V30 4 C 0.378666 3.92104 -1.91475 0
M  V30 5 N 0.171418 5.27959 -1.76392 0
M  V30 6 S 1.6538 3.29298 -3.06807 0
M  V30 7 C 2.29951 1.85939 -2.14856 0
M  V30 8 C 1.36729 1.16047 -1.46966 0
M  V30 9 C -0.0137604 1.56858 -1.51318 0
M  V30 10 C -0.992062 0.740459 -0.805924 0
M  V30 11 C -1.92613 -0.0358336 -1.47133 0
M  V30 12 C -2.88793 -0.77477 -0.841772 0
M  V30 13 C -2.94965 -0.762664 0.541652 0
M  V30 14 C -2.02385 0.00296018 1.22067 0
M  V30 15 C -1.04736 0.754055 0.562041 0
M  V30 16 N -3.97014 -1.48793 1.21896 0
M  V30 17 C -4.97409 -2.18297 0.434396 0
M  V30 18 C -4.01124 -1.54033 2.66664 0
M  V30 19 C 1.90832 -0.0079373 -0.718274 0
M  V30 20 N 3.03656 -0.0319384 -0.0266962 0
M  V30 21 C 3.41324 -1.1218 0.563701 0
M  V30 22 C 2.60939 -2.22583 0.441831 0
M  V30 23 S 1.33796 -1.60321 -0.533482 0
M  V30 24 C 2.94097 -3.4513 1.03831 0
M  V30 25 C 4.09529 -3.59262 1.7747 0
M  V30 26 C 4.90299 -2.48609 1.89859 0
M  V30 27 C 4.59143 -1.286 1.32249 0
M  V30 28 N 3.66758 1.52446 -2.16613 0
M  V30 29 H -0.290614 5.69797 -0.921224 0
M  V30 30 H 0.48216 5.94666 -2.51306 0
M  V30 31 H -0.326769 1.4892 -2.64037 0
M  V30 32 H -1.87826 -0.0508758 -2.57267 0
M  V30 33 H -3.61472 -1.37935 -1.39381 0
M  V30 34 H -2.03819 0.0363538 2.2948 0
M  V30 35 H -0.349722 1.33885 1.18552 0
M  V30 36 H -5.80709 -2.53552 1.0989 0
M  V30 37 H -5.46394 -1.45536 -0.282094 0
M  V30 38 H -4.57183 -2.97444 -0.204966 0
M  V30 39 H -3.20285 -2.17649 3.06355 0
M  V30 40 H -3.94261 -0.486497 3.05261 0
M  V30 41 H -4.96392 -2.00757 3.02547 0
M  V30 42 H 2.23926 -4.25266 0.879567 0
M  V30 43 H 4.33072 -4.53686 2.21929 0
M  V30 44 H 5.8345 -2.59587 2.49219 0
M  V30 45 H 5.29345 -0.46905 1.47859 0
M  V30 46 H 4.38005 1.89062 -1.52045 0
M  V30 47 H 3.97623 0.827644 -2.91254 0
M  V30 END ATOM
M  V30 BEGIN BOND
M  V30 1 3 1 2
M  V30 2 1 2 3
M  V30 3 2 3 4
M  V30 4 1 4 5
M  V30 5 1 4 6
M  V30 6 1 6 7
M  V30 7 2 7 8
M  V30 8 1 8 9
M  V30 9 1 9 10
M  V30 10 2 10 11
M  V30 11 1 11 12
M  V30 12 2 12 13
M  V30 13 1 13 14
M  V30 14 2 14 15
M  V30 15 1 13 16
M  V30 16 1 16 17
M  V30 17 1 16 18
M  V30 18 1 8 19
M  V30 19 2 19 20
M  V30 20 1 20 21
M  V30 21 2 21 22
M  V30 22 1 22 23
M  V30 23 1 22 24
M  V30 24 2 24 25
M  V30 25 1 25 26
M  V30 26 2 26 27
M  V30 27 1 7 28
M  V30 28 1 9 3
M  V30 29 1 15 10
M  V30 30 1 23 19
M  V30 31 1 27 21
M  V30 32 1 5 29
M  V30 33 1 5 30
M  V30 34 1 9 31
M  V30 35 1 11 32
M  V30 36 1 12 33
M  V30 37 1 14 34
M  V30 38 1 15 35
M  V30 39 1 17 36
M  V30 40 1 17 37
M  V30 41 1 17 38
M  V30 42 1 18 39
M  V30 43 1 18 40
M  V30 44 1 18 41
M  V30 45 1 24 42
M  V30 46 1 25 43
M  V30 47 1 26 44
M  V30 48 1 27 45
M  V30 49 1 28 46
M  V30 50 1 28 47
M  V30 END BOND
M  V30 END CTAB
M  END
