
     RDKit          3D

  0  0  0  0  0  0  0  0  0  0999 V3000
M  V30 BEGIN CTAB
M  V30 COUNTS 19 20 0 0 0
M  V30 BEGIN ATOM
M  V30 1 N -0.959605 1.49015 -0.344697 0
M  V30 2 N -1.09167 0.177205 0.101808 0
M  V30 3 C -0.0745404 -0.690201 0.234749 0
M  V30 4 N -0.650717 -1.8364 0.692104 0
M  V30 5 N -1.94973 -1.6581 0.824666 0
M  V30 6 C -2.26373 -0.403579 0.462661 0
M  V30 7 N -3.53042 0.24479 0.437589 0
M  V30 8 C 1.35699 -0.523307 -0.0295311 0
M  V30 9 C 2.30776 -1.50432 0.150086 0
M  V30 10 N 3.50315 -1.00212 -0.188624 0
M  V30 11 C 3.35422 0.288613 -0.586609 0
M  V30 12 N 2.03248 0.529176 -0.47096 0
M  V30 13 H -0.894914 2.24454 0.369247 0
M  V30 14 H -0.920855 1.77161 -1.34556 0
M  V30 15 H -4.25074 -0.000785608 -0.300278 0
M  V30 16 H -3.82259 0.974055 1.11472 0
M  V30 17 H 2.14719 -2.5049 0.499092 0
M  V30 18 H 4.12445 0.944477 -0.91293 0
M  V30 19 H 1.58328 1.4591 -0.707526 0
M  V30 END ATOM
M  V30 BEGIN BOND
M  V30 1 1 1 2
M  V30 2 1 2 3
M  V30 3 2 3 4
M  V30 4 1 4 5
M  V30 5 2 5 6
M  V30 6 1 6 7
M  V30 7 1 3 8
M  V30 8 2 8 9
M  V30 9 1 9 10
M  V30 10 2 10 11
M  V30 11 1 11 12
M  V30 12 1 6 2
M  V30 13 1 12 8
M  V30 14 1 1 13
M  V30 15 1 1 14
M  V30 16 1 7 15
M  V30 17 1 7 16
M  V30 18 1 9 17
M  V30 19 1 11 18
M  V30 20 1 12 19
M  V30 END BOND
M  V30 END CTAB
M  END
