
     RDKit          3D

  0  0  0  0  0  0  0  0  0  0999 V3000
M  V30 BEGIN CTAB
M  V30 COUNTS 26 25 0 0 0
M  V30 BEGIN ATOM
M  V30 1 C 1.76202 0.525142 -0.0690351 0 CFG=1
M  V30 2 N 2.54215 1.58641 -0.725687 0
M  V30 3 C 0.996566 -0.139026 -1.20142 0
M  V30 4 C 0.131754 -1.26911 -0.794566 0
M  V30 5 C -0.952104 -0.913087 0.143225 0
M  V30 6 N -1.8832 0.0644677 -0.367724 0
M  V30 7 C -3.1067 0.308131 0.329528 0
M  V30 8 N -3.55123 1.59048 0.691091 0 MASS=15
M  V30 9 N -3.84441 -0.715334 0.629036 0 MASS=15
M  V30 10 C 2.68227 -0.450572 0.576152 0
M  V30 11 O 4.03276 -0.399383 0.238712 0
M  V30 12 O 2.25286 -1.29738 1.39842 0
M  V30 13 H 1.11683 0.947719 0.713211 0
M  V30 14 H 2.2578 2.53549 -0.412731 0
M  V30 15 H 3.55165 1.3878 -0.659909 0
M  V30 16 H 1.75231 -0.510268 -1.95051 0
M  V30 17 H 0.354036 0.616169 -1.73445 0
M  V30 18 H -0.333357 -1.72838 -1.70889 0
M  V30 19 H 0.772121 -2.11121 -0.383459 0
M  V30 20 H -0.58457 -0.519718 1.1338 0
M  V30 21 H -1.51043 -1.86884 0.357414 0
M  V30 22 H -1.69028 0.609281 -1.23458 0
M  V30 23 H -3.22026 2.45302 0.243237 0
M  V30 24 H -4.26385 1.70637 1.44877 0
M  V30 25 H -3.5352 -1.65675 0.362852 0
M  V30 26 H 4.27047 -0.751412 -0.690335 0
M  V30 END ATOM
M  V30 BEGIN BOND
M  V30 1 1 1 2
M  V30 2 1 1 3
M  V30 3 1 3 4
M  V30 4 1 4 5
M  V30 5 1 5 6
M  V30 6 1 6 7
M  V30 7 1 7 8
M  V30 8 2 7 9 CFG=2
M  V30 9 1 1 10
M  V30 10 1 10 11
M  V30 11 2 10 12
M  V30 12 1 1 13 CFG=1
M  V30 13 1 2 14
M  V30 14 1 2 15
M  V30 15 1 3 16
M  V30 16 1 3 17
M  V30 17 1 4 18
M  V30 18 1 4 19
M  V30 19 1 5 20
M  V30 20 1 5 21
M  V30 21 1 6 22
M  V30 22 1 8 23
M  V30 23 1 8 24
M  V30 24 1 9 25
M  V30 25 1 11 26
M  V30 END BOND
M  V30 END CTAB
M  END
