
     RDKit          3D

  0  0  0  0  0  0  0  0  0  0999 V3000
M  V30 BEGIN CTAB
M  V30 COUNTS 53 54 0 0 0
M  V30 BEGIN ATOM
M  V30 1 N -5.16952 -0.567308 1.30132 0
M  V30 2 C -4.21253 -0.312517 0.228494 0
M  V30 3 C -3.11525 -1.31244 0.334394 0
M  V30 4 C -1.88945 -0.98729 -0.460094 0
M  V30 5 C -0.821496 -2.00417 -0.0463062 0
M  V30 6 C -2.1787 -1.20399 -1.91841 0
M  V30 7 N -1.43395 0.393597 -0.177562 0
M  V30 8 C -2.2327 1.21233 0.650494 0
M  V30 9 C -3.74649 1.08757 0.276651 0
M  V30 10 C -1.98644 2.68532 0.647827 0
M  V30 11 C -2.1774 0.796997 2.12275 0
M  V30 12 C -0.22255 0.729655 -0.821804 0
M  V30 13 S 0.462135 -0.397198 -1.88647 0
M  V30 14 N 0.534458 1.9093 -0.766218 0
M  V30 15 C 1.79048 2.01217 -1.56019 0
M  V30 16 C 2.74252 1.01814 -1.01409 0
M  V30 17 C 3.71809 0.414554 -1.78916 0
M  V30 18 C 4.60003 -0.501614 -1.25568 0
M  V30 19 C 4.53567 -0.848478 0.0834756 0
M  V30 20 C 3.57346 -0.261653 0.876258 0
M  V30 21 C 2.70636 0.646699 0.326448 0
M  V30 22 S 5.62269 -1.99684 0.804901 0
M  V30 23 O 6.03237 -3.03888 -0.193403 0
M  V30 24 O 4.89803 -2.67846 1.93221 0
M  V30 25 N 7.0292 -1.1823 1.41405 0
M  V30 26 H -6.08747 -0.17705 0.991982 0
M  V30 27 H -5.25721 -1.56065 1.54172 0
M  V30 28 H -4.78053 -0.479722 -0.714675 0
M  V30 29 H -2.90749 -1.62644 1.38633 0
M  V30 30 H -3.55613 -2.27224 -0.105243 0
M  V30 31 H -1.30086 -2.77209 0.651914 0
M  V30 32 H 0.0506333 -1.55081 0.43854 0
M  V30 33 H -0.473522 -2.63405 -0.884185 0
M  V30 34 H -2.13378 -0.288 -2.53992 0
M  V30 35 H -1.59958 -2.05793 -2.32112 0
M  V30 36 H -3.26481 -1.51797 -1.99805 0
M  V30 37 H -3.85122 1.63806 -0.681156 0
M  V30 38 H -4.32047 1.67015 1.02905 0
M  V30 39 H -2.94258 3.18123 1.08074 0
M  V30 40 H -1.85415 3.16677 -0.312539 0
M  V30 41 H -1.21455 3.02988 1.36001 0
M  V30 42 H -1.41658 0.00674197 2.28499 0
M  V30 43 H -3.15071 0.470008 2.51833 0
M  V30 44 H -1.85578 1.63225 2.78002 0
M  V30 45 H 0.352625 2.74482 -0.219031 0
M  V30 46 H 1.48425 1.69409 -2.57889 0
M  V30 47 H 2.17027 3.04594 -1.53263 0
M  V30 48 H 3.8032 0.653591 -2.8284 0
M  V30 49 H 5.36521 -0.97503 -1.86362 0
M  V30 50 H 3.52275 -0.532483 1.92324 0
M  V30 51 H 1.95341 1.10387 0.953568 0
M  V30 52 H 6.70923 -0.451943 2.0867 0
M  V30 53 H 7.49681 -0.754193 0.593801 0
M  V30 END ATOM
M  V30 BEGIN BOND
M  V30 1 1 1 2
M  V30 2 1 2 3
M  V30 3 1 3 4
M  V30 4 1 4 5
M  V30 5 1 4 6
M  V30 6 1 4 7
M  V30 7 1 7 8
M  V30 8 1 8 9
M  V30 9 1 8 10
M  V30 10 1 8 11
M  V30 11 1 7 12
M  V30 12 2 12 13
M  V30 13 1 12 14
M  V30 14 1 14 15
M  V30 15 1 15 16
M  V30 16 2 16 17
M  V30 17 1 17 18
M  V30 18 2 18 19
M  V30 19 1 19 20
M  V30 20 2 20 21
M  V30 21 1 19 22
M  V30 22 2 22 23
M  V30 23 2 22 24
M  V30 24 1 22 25
M  V30 25 1 9 2
M  V30 26 1 21 16
M  V30 27 1 1 26
M  V30 28 1 1 27
M  V30 29 1 2 28
M  V30 30 1 3 29
M  V30 31 1 3 30
M  V30 32 1 5 31
M  V30 33 1 5 32
M  V30 34 1 5 33
M  V30 35 1 6 34
M  V30 36 1 6 35
M  V30 37 1 6 36
M  V30 38 1 9 37
M  V30 39 1 9 38
M  V30 40 1 10 39
M  V30 41 1 10 40
M  V30 42 1 10 41
M  V30 43 1 11 42
M  V30 44 1 11 43
M  V30 45 1 11 44
M  V30 46 1 14 45
M  V30 47 1 15 46
M  V30 48 1 15 47
M  V30 49 1 17 48
M  V30 50 1 18 49
M  V30 51 1 20 50
M  V30 52 1 21 51
M  V30 53 1 25 52
M  V30 54 1 25 53
M  V30 END BOND
M  V30 END CTAB
M  END
