
     RDKit          3D

  0  0  0  0  0  0  0  0  0  0999 V3000
M  V30 BEGIN CTAB
M  V30 COUNTS 24 24 0 0 0
M  V30 BEGIN ATOM
M  V30 1 N 3.26223 -0.522847 -0.342941 0
M  V30 2 C 3.57434 0.848989 -0.166924 0
M  V30 3 N 2.61421 1.69104 -0.10156 0
M  V30 4 N 1.28388 1.30075 -0.197639 0
M  V30 5 C 0.763154 0.455327 0.627297 0
M  V30 6 C -0.636942 0.0728951 0.490908 0
M  V30 7 C -1.39998 0.608942 -0.51052 0
M  V30 8 C -2.71158 0.291976 -0.689726 0
M  V30 9 C -3.31878 -0.603173 0.159308 0
M  V30 10 C -2.57336 -1.1734 1.1956 0
M  V30 11 C -1.24749 -0.8233 1.33978 0
M  V30 12 N -4.67383 -0.916907 -0.0429554 0 CHG=1
M  V30 13 O -5.23493 -1.71998 0.711504 0
M  V30 14 O -5.36786 -0.344004 -1.06003 0 CHG=-1
M  V30 15 N 4.9388 1.21455 -0.0725635 0
M  V30 16 H 3.40076 -1.16136 0.466725 0
M  V30 17 H 2.90478 -0.92215 -1.23169 0
M  V30 18 H 1.39995 0.0624015 1.39519 0
M  V30 19 H -0.933288 1.32105 -1.1931 0
M  V30 20 H -3.26048 0.752321 -1.50318 0
M  V30 21 H -3.05198 -1.86939 1.85289 0
M  V30 22 H -0.66702 -1.25663 2.13341 0
M  V30 23 H 5.42632 1.79546 -0.788224 0
M  V30 24 H 5.5091 0.897441 0.748842 0
M  V30 END ATOM
M  V30 BEGIN BOND
M  V30 1 1 1 2
M  V30 2 2 2 3
M  V30 3 1 3 4
M  V30 4 2 4 5
M  V30 5 1 5 6
M  V30 6 2 6 7
M  V30 7 1 7 8
M  V30 8 2 8 9
M  V30 9 1 9 10
M  V30 10 2 10 11
M  V30 11 1 9 12
M  V30 12 2 12 13
M  V30 13 1 12 14
M  V30 14 1 2 15
M  V30 15 1 11 6
M  V30 16 1 1 16
M  V30 17 1 1 17
M  V30 18 1 5 18
M  V30 19 1 7 19
M  V30 20 1 8 20
M  V30 21 1 10 21
M  V30 22 1 11 22
M  V30 23 1 15 23
M  V30 24 1 15 24
M  V30 END BOND
M  V30 END CTAB
M  END
