
     RDKit          3D

  0  0  0  0  0  0  0  0  0  0999 V3000
M  V30 BEGIN CTAB
M  V30 COUNTS 27 27 0 0 0
M  V30 BEGIN ATOM
M  V30 1 N -2.53706 1.38558 0.995807 0
M  V30 2 C -2.49551 -0.0440724 1.14409 0
M  V30 3 C -1.61788 -0.740993 0.13846 0
M  V30 4 C -0.216829 -0.271432 0.245812 0
M  V30 5 N 0.174193 0.609818 1.1825 0
M  V30 6 C 1.44583 1.02385 1.27112 0
M  V30 7 C 2.42185 0.567235 0.40464 0
M  V30 8 C 2.03711 -0.331837 -0.555829 0
M  V30 9 C 0.720428 -0.761709 -0.648971 0
M  V30 10 N 0.385142 -1.6925 -1.66448 0
M  V30 11 C 3.83926 1.05602 0.536168 0
M  V30 12 C -2.14122 -0.572017 -1.27333 0
M  V30 13 H -3.51983 1.73552 0.929407 0
M  V30 14 H -1.93697 1.75993 0.225791 0
M  V30 15 H -2.0906 -0.293365 2.15521 0
M  V30 16 H -3.5278 -0.425163 1.08904 0
M  V30 17 H -1.64046 -1.82438 0.399771 0
M  V30 18 H 1.74438 1.73855 2.03836 0
M  V30 19 H 2.77476 -0.693974 -1.23037 0
M  V30 20 H 0.316244 -2.70815 -1.48394 0
M  V30 21 H 0.202883 -1.33944 -2.61909 0
M  V30 22 H 4.47524 0.423047 -0.145854 0
M  V30 23 H 4.15985 0.905522 1.57528 0
M  V30 24 H 3.93632 2.08917 0.19946 0
M  V30 25 H -3.19889 -0.195232 -1.25785 0
M  V30 26 H -2.19656 -1.54291 -1.81116 0
M  V30 27 H -1.51388 0.142923 -1.84006 0
M  V30 END ATOM
M  V30 BEGIN BOND
M  V30 1 1 1 2
M  V30 2 1 2 3
M  V30 3 1 3 4
M  V30 4 2 4 5
M  V30 5 1 5 6
M  V30 6 2 6 7
M  V30 7 1 7 8
M  V30 8 2 8 9
M  V30 9 1 9 10
M  V30 10 1 7 11
M  V30 11 1 3 12
M  V30 12 1 9 4
M  V30 13 1 1 13
M  V30 14 1 1 14
M  V30 15 1 2 15
M  V30 16 1 2 16
M  V30 17 1 3 17
M  V30 18 1 6 18
M  V30 19 1 8 19
M  V30 20 1 10 20
M  V30 21 1 10 21
M  V30 22 1 11 22
M  V30 23 1 11 23
M  V30 24 1 11 24
M  V30 25 1 12 25
M  V30 26 1 12 26
M  V30 27 1 12 27
M  V30 END BOND
M  V30 END CTAB
M  END
