
     RDKit          3D

  0  0  0  0  0  0  0  0  0  0999 V3000
M  V30 BEGIN CTAB
M  V30 COUNTS 66 70 0 0 0
M  V30 BEGIN ATOM
M  V30 1 N 8.22353 -0.806697 -0.287971 0
M  V30 2 C 7.07782 -0.706901 -0.172738 0
M  V30 3 C 5.63361 -0.600729 -0.0340656 0
M  V30 4 C 4.94324 -1.5445 0.580342 0
M  V30 5 N 5.67063 -2.65149 1.09095 0
M  V30 6 C 3.49455 -1.51933 0.766019 0
M  V30 7 C 2.87584 -0.159248 0.635074 0
M  V30 8 C 3.5063 0.74944 -0.345471 0
M  V30 9 C 4.95693 0.540145 -0.571956 0
M  V30 10 C 5.58339 1.45768 -1.29233 0
M  V30 11 C 4.81588 2.61692 -1.81942 0
M  V30 12 C 4.01405 3.19942 -0.677482 0
M  V30 13 C 3.39103 2.1789 0.211992 0
M  V30 14 C 1.43474 -0.308288 0.430012 0
M  V30 15 C 0.84798 -0.51283 -0.796653 0
M  V30 16 C -0.498613 -0.65133 -0.912745 0
M  V30 17 C -1.39004 -0.601373 0.163833 0
M  V30 18 C -0.775118 -0.39426 1.38787 0
M  V30 19 C 0.586466 -0.251434 1.52916 0
M  V30 20 C -2.8001 -0.776449 -0.085718 0
M  V30 21 C -3.52775 0.521738 -0.210439 0
M  V30 22 C -3.30619 1.55328 0.821306 0
M  V30 23 C -3.83004 2.87295 0.211368 0
M  V30 24 C -5.29439 2.75209 -0.0842505 0
M  V30 25 C -5.77461 1.37757 -0.26244 0
M  V30 26 C -5.00893 0.310564 -0.327691 0
M  V30 27 C -5.51655 -1.03381 -0.501002 0
M  V30 28 C -4.82198 -2.05146 -0.0190712 0
M  V30 29 C -3.53039 -1.83252 0.696764 0
M  V30 30 C -3.86254 -1.48981 2.0495 0
M  V30 31 N -4.14203 -1.23444 3.1392 0
M  V30 32 C -2.78539 -3.08513 0.57975 0
M  V30 33 N -2.1949 -4.08859 0.494689 0
M  V30 34 N -5.31489 -3.35811 -0.185044 0
M  V30 35 C -6.77009 -1.17387 -1.19543 0
M  V30 36 N -7.78324 -1.30778 -1.75113 0
M  V30 37 C 3.24368 -2.04257 2.13571 0
M  V30 38 N 3.05295 -2.43647 3.20661 0
M  V30 39 C 2.8974 -2.49784 -0.131665 0
M  V30 40 N 2.42905 -3.30771 -0.847235 0
M  V30 41 H 5.52955 -3.63004 0.763269 0
M  V30 42 H 6.38126 -2.45908 1.83391 0
M  V30 43 H 3.0085 0.301493 1.66666 0
M  V30 44 H 3.04814 0.704767 -1.36424 0
M  V30 45 H 6.65886 1.37978 -1.50846 0
M  V30 46 H 5.49574 3.40173 -2.20148 0
M  V30 47 H 4.10675 2.27192 -2.60168 0
M  V30 48 H 3.2349 3.92155 -1.06124 0
M  V30 49 H 4.73177 3.86585 -0.11445 0
M  V30 50 H 3.97698 2.15085 1.16671 0
M  V30 51 H 2.35031 2.40237 0.504034 0
M  V30 52 H 1.47886 -0.555509 -1.65727 0
M  V30 53 H -0.880429 -0.811368 -1.93379 0
M  V30 54 H -1.40733 -0.346816 2.23353 0
M  V30 55 H 0.961975 -0.0935996 2.53231 0
M  V30 56 H -2.87891 -1.20461 -1.15305 0
M  V30 57 H -3.25131 1.00073 -1.19982 0
M  V30 58 H -2.28853 1.72395 1.16717 0
M  V30 59 H -3.93329 1.44506 1.74181 0
M  V30 60 H -3.63139 3.67107 0.933954 0
M  V30 61 H -3.21609 3.03007 -0.696492 0
M  V30 62 H -5.53669 3.39596 -0.959484 0
M  V30 63 H -5.83741 3.17458 0.805314 0
M  V30 64 H -6.8592 1.23464 -0.348612 0
M  V30 65 H -5.63761 -3.89666 0.634427 0
M  V30 66 H -5.35669 -3.78446 -1.12311 0
M  V30 END ATOM
M  V30 BEGIN BOND
M  V30 1 3 1 2
M  V30 2 1 2 3
M  V30 3 2 3 4
M  V30 4 1 4 5
M  V30 5 1 4 6
M  V30 6 1 6 7
M  V30 7 1 7 8
M  V30 8 1 8 9
M  V30 9 2 9 10
M  V30 10 1 10 11
M  V30 11 1 11 12
M  V30 12 1 12 13
M  V30 13 1 7 14
M  V30 14 2 14 15
M  V30 15 1 15 16
M  V30 16 2 16 17
M  V30 17 1 17 18
M  V30 18 2 18 19
M  V30 19 1 17 20
M  V30 20 1 20 21
M  V30 21 1 21 22
M  V30 22 1 22 23
M  V30 23 1 23 24
M  V30 24 1 24 25
M  V30 25 2 25 26
M  V30 26 1 26 27
M  V30 27 2 27 28
M  V30 28 1 28 29
M  V30 29 1 29 30
M  V30 30 3 30 31
M  V30 31 1 29 32
M  V30 32 3 32 33
M  V30 33 1 28 34
M  V30 34 1 27 35
M  V30 35 3 35 36
M  V30 36 1 6 37
M  V30 37 3 37 38
M  V30 38 1 6 39
M  V30 39 3 39 40
M  V30 40 1 9 3
M  V30 41 1 19 14
M  V30 42 1 29 20
M  V30 43 1 13 8
M  V30 44 1 26 21
M  V30 45 1 5 41
M  V30 46 1 5 42
M  V30 47 1 7 43
M  V30 48 1 8 44
M  V30 49 1 10 45
M  V30 50 1 11 46
M  V30 51 1 11 47
M  V30 52 1 12 48
M  V30 53 1 12 49
M  V30 54 1 13 50
M  V30 55 1 13 51
M  V30 56 1 15 52
M  V30 57 1 16 53
M  V30 58 1 18 54
M  V30 59 1 19 55
M  V30 60 1 20 56
M  V30 61 1 21 57
M  V30 62 1 22 58
M  V30 63 1 22 59
M  V30 64 1 23 60
M  V30 65 1 23 61
M  V30 66 1 24 62
M  V30 67 1 24 63
M  V30 68 1 25 64
M  V30 69 1 34 65
M  V30 70 1 34 66
M  V30 END BOND
M  V30 END CTAB
M  END
