
     RDKit          3D

  0  0  0  0  0  0  0  0  0  0999 V3000
M  V30 BEGIN CTAB
M  V30 COUNTS 50 52 0 0 0
M  V30 BEGIN ATOM
M  V30 1 O -5.04636 -0.203345 -2.13049 0 CHG=-1
M  V30 2 N -4.67846 -1.00307 -1.08013 0 CHG=1
M  V30 3 O -5.53409 -1.73154 -0.548205 0
M  V30 4 C -3.35436 -1.05379 -0.56696 0
M  V30 5 C -2.56923 -2.1849 -0.836969 0
M  V30 6 N -3.16658 -3.22456 -1.60938 0
M  V30 7 N -1.30678 -2.27751 -0.381366 0
M  V30 8 C -0.739941 -1.30239 0.347491 0
M  V30 9 N -1.46622 -0.229707 0.611081 0
M  V30 10 C -2.7576 -0.0704437 0.178168 0
M  V30 11 N -3.48157 1.10903 0.504002 0
M  V30 12 C -4.64482 1.1628 1.35676 0
M  V30 13 C -5.61668 2.14825 0.750343 0
M  V30 14 O -4.97182 3.40331 0.805855 0
M  V30 15 C -3.97863 3.44447 -0.166744 0
M  V30 16 C -2.99569 2.33486 -0.0651839 0
M  V30 17 N 0.611572 -1.465 0.79815 0
M  V30 18 C 1.34413 -2.66132 0.460075 0
M  V30 19 C 2.69852 -2.68907 1.02824 0
M  V30 20 C 3.64589 -1.64934 0.68801 0
M  V30 21 C 3.74105 -0.548353 1.5175 0
M  V30 22 C 4.61843 0.482957 1.24607 0
M  V30 23 C 5.43779 0.463974 0.140305 0
M  V30 24 C 5.33168 -0.641366 -0.677733 0
M  V30 25 C 4.47075 -1.67733 -0.43264 0
M  V30 26 S 6.54506 1.7843 -0.184697 0
M  V30 27 O 7.04111 2.41873 1.07633 0
M  V30 28 O 7.70287 1.21605 -0.978258 0
M  V30 29 N 5.71868 2.94291 -1.15241 0
M  V30 30 H -3.35626 -3.12701 -2.62314 0
M  V30 31 H -3.41611 -4.11061 -1.11831 0
M  V30 32 H -5.14185 0.197854 1.52635 0
M  V30 33 H -4.35923 1.52405 2.37544 0
M  V30 34 H -5.78587 1.88753 -0.303524 0
M  V30 35 H -6.57187 2.19173 1.31142 0
M  V30 36 H -4.47377 3.51009 -1.1645 0
M  V30 37 H -3.43546 4.40398 -0.0373228 0
M  V30 38 H -2.09015 2.63265 0.529876 0
M  V30 39 H -2.64232 2.10668 -1.10799 0
M  V30 40 H 1.07985 -0.740645 1.36473 0
M  V30 41 H 1.28478 -2.87908 -0.62843 0
M  V30 42 H 0.782493 -3.52533 0.931081 0
M  V30 43 H 3.21423 -3.6756 0.816738 0
M  V30 44 H 2.59893 -2.7169 2.15375 0
M  V30 45 H 3.15636 -0.417947 2.42272 0
M  V30 46 H 4.6892 1.33942 1.89561 0
M  V30 47 H 5.95785 -0.684958 -1.54797 0
M  V30 48 H 4.36151 -2.556 -1.05042 0
M  V30 49 H 5.3087 2.52224 -1.99116 0
M  V30 50 H 6.24029 3.81925 -1.28579 0
M  V30 END ATOM
M  V30 BEGIN BOND
M  V30 1 1 1 2
M  V30 2 2 2 3
M  V30 3 1 2 4
M  V30 4 2 4 5
M  V30 5 1 5 6
M  V30 6 1 5 7
M  V30 7 2 7 8
M  V30 8 1 8 9
M  V30 9 2 9 10
M  V30 10 1 10 11
M  V30 11 1 11 12
M  V30 12 1 12 13
M  V30 13 1 13 14
M  V30 14 1 14 15
M  V30 15 1 15 16
M  V30 16 1 8 17
M  V30 17 1 17 18
M  V30 18 1 18 19
M  V30 19 1 19 20
M  V30 20 2 20 21
M  V30 21 1 21 22
M  V30 22 2 22 23
M  V30 23 1 23 24
M  V30 24 2 24 25
M  V30 25 1 23 26
M  V30 26 2 26 27
M  V30 27 2 26 28
M  V30 28 1 26 29
M  V30 29 1 10 4
M  V30 30 1 16 11
M  V30 31 1 25 20
M  V30 32 1 6 30
M  V30 33 1 6 31
M  V30 34 1 12 32
M  V30 35 1 12 33
M  V30 36 1 13 34
M  V30 37 1 13 35
M  V30 38 1 15 36
M  V30 39 1 15 37
M  V30 40 1 16 38
M  V30 41 1 16 39
M  V30 42 1 17 40
M  V30 43 1 18 41
M  V30 44 1 18 42
M  V30 45 1 19 43
M  V30 46 1 19 44
M  V30 47 1 21 45
M  V30 48 1 22 46
M  V30 49 1 24 47
M  V30 50 1 25 48
M  V30 51 1 29 49
M  V30 52 1 29 50
M  V30 END BOND
M  V30 END CTAB
M  END
