
     RDKit          3D

  0  0  0  0  0  0  0  0  0  0999 V3000
M  V30 BEGIN CTAB
M  V30 COUNTS 26 26 0 0 0
M  V30 BEGIN ATOM
M  V30 1 N 3.37723 0.88239 -0.734948 0
M  V30 2 C 3.45534 -0.51122 -0.500541 0
M  V30 3 C 2.51073 -1.02421 0.513922 0
M  V30 4 N 1.12178 -0.886486 0.309073 0
M  V30 5 C 0.332517 0.268194 0.187909 0
M  V30 6 O 0.728968 1.45836 0.247527 0
M  V30 7 C -1.11681 0.108566 -0.0329815 0
M  V30 8 C -1.82258 -1.07143 -0.139906 0
M  V30 9 C -3.15409 -0.765112 -0.343099 0
M  V30 10 N -3.22031 0.568943 -0.353966 0
M  V30 11 N -2.00105 1.097 -0.168373 0
M  V30 12 C -1.73426 2.5291 -0.128476 0
M  V30 13 N -4.22446 -1.69627 -0.505755 0
M  V30 14 H 3.9471 1.48068 -0.10134 0
M  V30 15 H 3.3555 1.1824 -1.71658 0
M  V30 16 H 4.49565 -0.684854 -0.076243 0
M  V30 17 H 3.48497 -1.12431 -1.43646 0
M  V30 18 H 2.7384 -2.11153 0.74685 0
M  V30 19 H 2.74854 -0.531287 1.51328 0
M  V30 20 H 0.593119 -1.82435 0.232997 0
M  V30 21 H -1.41437 -2.07052 -0.0770915 0
M  V30 22 H -1.23999 2.81734 0.840322 0
M  V30 23 H -2.67333 3.10331 -0.160891 0
M  V30 24 H -1.08276 2.86137 -0.95538 0
M  V30 25 H -4.00549 -2.71378 -0.560824 0
M  V30 26 H -5.20033 -1.34229 -0.566078 0
M  V30 END ATOM
M  V30 BEGIN BOND
M  V30 1 1 1 2
M  V30 2 1 2 3
M  V30 3 1 3 4
M  V30 4 1 4 5
M  V30 5 2 5 6
M  V30 6 1 5 7
M  V30 7 2 7 8
M  V30 8 1 8 9
M  V30 9 2 9 10
M  V30 10 1 10 11
M  V30 11 1 11 12
M  V30 12 1 9 13
M  V30 13 1 11 7
M  V30 14 1 1 14
M  V30 15 1 1 15
M  V30 16 1 2 16
M  V30 17 1 2 17
M  V30 18 1 3 18
M  V30 19 1 3 19
M  V30 20 1 4 20
M  V30 21 1 8 21
M  V30 22 1 12 22
M  V30 23 1 12 23
M  V30 24 1 12 24
M  V30 25 1 13 25
M  V30 26 1 13 26
M  V30 END BOND
M  V30 END CTAB
M  END
