
     RDKit          3D

  0  0  0  0  0  0  0  0  0  0999 V3000
M  V30 BEGIN CTAB
M  V30 COUNTS 48 51 0 0 0
M  V30 BEGIN ATOM
M  V30 1 Cl -1.11932 4.21879 3.66131 0
M  V30 2 C -0.614936 3.09828 2.40702 0
M  V30 3 C 0.683184 3.09339 1.93553 0
M  V30 4 C 1.11785 2.23536 0.95769 0
M  V30 5 C 0.196324 1.32207 0.414679 0
M  V30 6 C -1.10749 1.30121 0.863426 0
M  V30 7 C -1.48805 2.18129 1.84295 0
M  V30 8 N -2.07726 0.392818 0.339449 0
M  V30 9 C -2.76741 0.86801 -0.814627 0
M  V30 10 N -3.69288 0.164479 -1.39444 0
M  V30 11 C -4.02707 -1.11317 -0.86594 0
M  V30 12 N -3.41518 -1.53396 0.154746 0
M  V30 13 C -2.38876 -0.872615 0.881187 0
M  V30 14 C -1.18039 -1.83191 0.83268 0
M  V30 15 C -2.88471 -0.800612 2.32197 0
M  V30 16 N -5.03176 -1.94524 -1.44473 0
M  V30 17 N -2.48976 2.13532 -1.4031 0
M  V30 18 O 0.498155 0.425031 -0.554676 0
M  V30 19 C 1.58842 0.0745585 -1.22725 0
M  V30 20 C 1.62132 0.339841 -2.58979 0
M  V30 21 C 2.68071 0.0323195 -3.3979 0
M  V30 22 C 3.78005 -0.574553 -2.83764 0
M  V30 23 C 3.77188 -0.853139 -1.47277 0
M  V30 24 C 2.67892 -0.531843 -0.662258 0
M  V30 25 C 2.72556 -0.856309 0.689678 0
M  V30 26 C 3.82791 -1.48015 1.22846 0
M  V30 27 C 4.91139 -1.79843 0.437386 0
M  V30 28 C 4.8488 -1.47241 -0.900035 0
M  V30 29 Br 5.31112 -1.04527 -3.86833 0
M  V30 30 H 1.37911 3.82178 2.38268 0
M  V30 31 H 2.13398 2.23104 0.587175 0
M  V30 32 H -2.50964 2.20921 2.23704 0
M  V30 33 H -0.966022 -2.0362 -0.228832 0
M  V30 34 H -1.5022 -2.81561 1.28934 0
M  V30 35 H -0.354098 -1.48676 1.4459 0
M  V30 36 H -3.33365 -1.79508 2.53345 0
M  V30 37 H -2.07465 -0.654245 3.0409 0
M  V30 38 H -3.68517 -0.0605768 2.34637 0
M  V30 39 H -5.25565 -1.95403 -2.46319 0
M  V30 40 H -5.60129 -2.60017 -0.849944 0
M  V30 41 H -3.04199 2.95517 -1.08088 0
M  V30 42 H -1.76546 2.28357 -2.13641 0
M  V30 43 H 0.762816 0.824298 -3.07975 0
M  V30 44 H 2.70235 0.242268 -4.46558 0
M  V30 45 H 1.85305 -0.620222 1.29402 0
M  V30 46 H 3.81608 -1.71094 2.28622 0
M  V30 47 H 5.79975 -2.2949 0.847597 0
M  V30 48 H 5.68609 -1.71175 -1.54353 0
M  V30 END ATOM
M  V30 BEGIN BOND
M  V30 1 1 1 2
M  V30 2 2 2 3
M  V30 3 1 3 4
M  V30 4 2 4 5
M  V30 5 1 5 6
M  V30 6 2 6 7
M  V30 7 1 6 8
M  V30 8 1 8 9
M  V30 9 2 9 10
M  V30 10 1 10 11
M  V30 11 2 11 12
M  V30 12 1 12 13
M  V30 13 1 13 14
M  V30 14 1 13 15
M  V30 15 1 11 16
M  V30 16 1 9 17
M  V30 17 1 5 18
M  V30 18 1 18 19
M  V30 19 2 19 20
M  V30 20 1 20 21
M  V30 21 2 21 22
M  V30 22 1 22 23
M  V30 23 2 23 24
M  V30 24 1 24 25
M  V30 25 2 25 26
M  V30 26 1 26 27
M  V30 27 2 27 28
M  V30 28 1 22 29
M  V30 29 1 7 2
M  V30 30 1 13 8
M  V30 31 1 24 19
M  V30 32 1 28 23
M  V30 33 1 3 30
M  V30 34 1 4 31
M  V30 35 1 7 32
M  V30 36 1 14 33
M  V30 37 1 14 34
M  V30 38 1 14 35
M  V30 39 1 15 36
M  V30 40 1 15 37
M  V30 41 1 15 38
M  V30 42 1 16 39
M  V30 43 1 16 40
M  V30 44 1 17 41
M  V30 45 1 17 42
M  V30 46 1 20 43
M  V30 47 1 21 44
M  V30 48 1 25 45
M  V30 49 1 26 46
M  V30 50 1 27 47
M  V30 51 1 28 48
M  V30 END BOND
M  V30 END CTAB
M  END
