
     RDKit          3D

  0  0  0  0  0  0  0  0  0  0999 V3000
M  V30 BEGIN CTAB
M  V30 COUNTS 34 36 0 0 0
M  V30 BEGIN ATOM
M  V30 1 N 6.18268 0.822859 -0.148182 0
M  V30 2 C 4.99016 0.176423 0.275395 0
M  V30 3 N 4.74189 -0.343287 1.49202 0
M  V30 4 N 3.53059 -0.855549 1.49877 0
M  V30 5 N 2.96798 -0.692053 0.325692 0
M  V30 6 C 3.84463 -0.0534895 -0.46391 0
M  V30 7 C 1.61677 -1.11495 -0.0923041 0
M  V30 8 C 0.636995 -0.0332207 0.175834 0
M  V30 9 O 1.15608 1.0178 0.692679 0
M  V30 10 N -0.74078 -0.122115 -0.10031 0
M  V30 11 C -1.65519 0.871471 0.139655 0
M  V30 12 C -1.48328 2.12651 0.673418 0
M  V30 13 C -2.59863 2.95347 0.811554 0
M  V30 14 C -3.83075 2.5024 0.41627 0
M  V30 15 C -4.02502 1.25392 -0.11875 0
M  V30 16 C -2.91189 0.420318 -0.259911 0
M  V30 17 C -2.75963 -0.838848 -0.738945 0
M  V30 18 C -1.4244 -1.14608 -0.630164 0
M  V30 19 C -0.895456 -2.46578 -1.06602 0
M  V30 20 N -3.82646 -1.63252 -1.24331 0
M  V30 21 H 6.64294 0.538997 -1.03043 0
M  V30 22 H 6.59231 1.58541 0.434554 0
M  V30 23 H 3.71598 0.24816 -1.50689 0
M  V30 24 H 1.4141 -2.04935 0.475958 0
M  V30 25 H 1.73224 -1.31854 -1.17323 0
M  V30 26 H -0.53052 2.52667 0.999814 0
M  V30 27 H -2.46937 3.96136 1.23875 0
M  V30 28 H -4.69316 3.16288 0.53153 0
M  V30 29 H -4.99047 0.878773 -0.437306 0
M  V30 30 H -0.196708 -2.361 -1.90278 0
M  V30 31 H -0.55931 -3.057 -0.20951 0
M  V30 32 H -1.74334 -3.09616 -1.49845 0
M  V30 33 H -4.81374 -1.51279 -0.936299 0
M  V30 34 H -3.61722 -2.35471 -1.93974 0
M  V30 END ATOM
M  V30 BEGIN BOND
M  V30 1 1 1 2
M  V30 2 1 2 3
M  V30 3 2 3 4
M  V30 4 1 4 5
M  V30 5 1 5 6
M  V30 6 1 5 7
M  V30 7 1 7 8
M  V30 8 2 8 9
M  V30 9 1 8 10
M  V30 10 1 10 11
M  V30 11 2 11 12
M  V30 12 1 12 13
M  V30 13 2 13 14
M  V30 14 1 14 15
M  V30 15 2 15 16
M  V30 16 1 16 17
M  V30 17 2 17 18
M  V30 18 1 18 19
M  V30 19 1 17 20
M  V30 20 2 6 2
M  V30 21 1 18 10
M  V30 22 1 16 11
M  V30 23 1 1 21
M  V30 24 1 1 22
M  V30 25 1 6 23
M  V30 26 1 7 24
M  V30 27 1 7 25
M  V30 28 1 12 26
M  V30 29 1 13 27
M  V30 30 1 14 28
M  V30 31 1 15 29
M  V30 32 1 19 30
M  V30 33 1 19 31
M  V30 34 1 19 32
M  V30 35 1 20 33
M  V30 36 1 20 34
M  V30 END BOND
M  V30 END CTAB
M  END
