
     RDKit          3D

  0  0  0  0  0  0  0  0  0  0999 V3000
M  V30 BEGIN CTAB
M  V30 COUNTS 27 27 0 0 0
M  V30 BEGIN ATOM
M  V30 1 N 4.41804 0.73556 0.382583 0
M  V30 2 C 3.09588 0.597871 0.91884 0
M  V30 3 C 2.05931 0.241508 -0.113644 0
M  V30 4 N 0.801276 0.123314 0.607798 0
M  V30 5 C -0.303014 -0.304537 -0.184347 0
M  V30 6 C -0.736392 0.613296 -1.27325 0
M  V30 7 C -2.25174 0.414771 -1.40997 0
M  V30 8 C -2.66787 -0.495796 -0.292332 0
M  V30 9 C -1.52607 -0.363221 0.706171 0
M  V30 10 N -3.87291 -0.0293598 0.349485 0
M  V30 11 H 5.06038 0.75684 1.23787 0
M  V30 12 H 4.71031 -0.180281 -0.0849603 0
M  V30 13 H 2.82631 1.53282 1.44239 0
M  V30 14 H 3.10216 -0.252861 1.64555 0
M  V30 15 H 1.91214 1.06325 -0.858434 0
M  V30 16 H 2.30439 -0.661387 -0.680625 0
M  V30 17 H 0.969166 -0.597859 1.35349 0
M  V30 18 H -0.12129 -1.35017 -0.590915 0
M  V30 19 H -0.516018 1.66568 -1.08467 0
M  V30 20 H -0.276979 0.388441 -2.28115 0
M  V30 21 H -2.46114 -0.115075 -2.35978 0
M  V30 22 H -2.77895 1.37867 -1.31075 0
M  V30 23 H -2.78752 -1.54417 -0.578082 0
M  V30 24 H -1.502 -1.20548 1.40419 0
M  V30 25 H -1.64987 0.615083 1.20869 0
M  V30 26 H -4.04805 -0.610998 1.20172 0
M  V30 27 H -3.75953 0.97446 0.644129 0
M  V30 END ATOM
M  V30 BEGIN BOND
M  V30 1 1 1 2
M  V30 2 1 2 3
M  V30 3 1 3 4
M  V30 4 1 4 5
M  V30 5 1 5 6
M  V30 6 1 6 7
M  V30 7 1 7 8
M  V30 8 1 8 9
M  V30 9 1 8 10
M  V30 10 1 9 5
M  V30 11 1 1 11
M  V30 12 1 1 12
M  V30 13 1 2 13
M  V30 14 1 2 14
M  V30 15 1 3 15
M  V30 16 1 3 16
M  V30 17 1 4 17
M  V30 18 1 5 18
M  V30 19 1 6 19
M  V30 20 1 6 20
M  V30 21 1 7 21
M  V30 22 1 7 22
M  V30 23 1 8 23
M  V30 24 1 9 24
M  V30 25 1 9 25
M  V30 26 1 10 26
M  V30 27 1 10 27
M  V30 END BOND
M  V30 END CTAB
M  END
