
     RDKit          3D

  0  0  0  0  0  0  0  0  0  0999 V3000
M  V30 BEGIN CTAB
M  V30 COUNTS 45 47 0 0 0
M  V30 BEGIN ATOM
M  V30 1 N 5.65399 0.830773 -1.98196 0
M  V30 2 C 4.96879 0.119872 -0.960757 0
M  V30 3 N 5.5496 -0.847949 -0.214123 0
M  V30 4 C 4.87617 -1.49871 0.740322 0
M  V30 5 N 5.51995 -2.49755 1.49202 0
M  V30 6 N 3.59164 -1.19895 0.978767 0
M  V30 7 C 2.92003 -0.253871 0.294091 0
M  V30 8 C 3.6493 0.40416 -0.691556 0
M  V30 9 N 1.56042 0.0489883 0.561286 0
M  V30 10 C 0.832454 1.04674 -0.152853 0
M  V30 11 C -0.401808 1.36388 0.703251 0
M  V30 12 C -1.28613 0.11187 0.609212 0
M  V30 13 C -0.544517 -0.964905 1.37113 0
M  V30 14 C 0.894128 -0.690921 1.60749 0
M  V30 15 C -2.59645 0.416883 1.19357 0
M  V30 16 N -2.81963 0.725103 2.48489 0
M  V30 17 C -4.11695 0.948878 2.69962 0
M  V30 18 C -4.73302 0.772077 1.48516 0
M  V30 19 N -3.78252 0.444008 0.564587 0
M  V30 20 C -3.9983 0.173838 -0.829433 0
M  V30 21 C -3.32001 1.14248 -1.74201 0
M  V30 22 C -3.63462 -1.26637 -1.18639 0
M  V30 23 H 6.06648 1.75322 -1.72822 0
M  V30 24 H 5.75854 0.482427 -2.94011 0
M  V30 25 H 6.30509 -2.3 2.17353 0
M  V30 26 H 5.25643 -3.52012 1.42219 0
M  V30 27 H 3.12889 1.16207 -1.24837 0
M  V30 28 H 1.3632 2.00956 -0.26155 0
M  V30 29 H 0.426382 0.676962 -1.12696 0
M  V30 30 H -0.919032 2.26089 0.372998 0
M  V30 31 H -0.0787634 1.47058 1.75165 0
M  V30 32 H -1.33065 -0.115045 -0.475352 0
M  V30 33 H -0.663191 -1.92955 0.820178 0
M  V30 34 H -1.04362 -1.03178 2.38184 0
M  V30 35 H 1.09821 -0.243138 2.61821 0
M  V30 36 H 1.40529 -1.69525 1.66619 0
M  V30 37 H -4.61814 1.21401 3.61357 0
M  V30 38 H -5.78673 0.877214 1.30327 0
M  V30 39 H -5.10135 0.247494 -1.03572 0
M  V30 40 H -4.03451 1.60065 -2.45568 0
M  V30 41 H -2.55074 0.637787 -2.39843 0
M  V30 42 H -2.86231 1.98131 -1.17895 0
M  V30 43 H -3.29244 -1.81364 -0.284013 0
M  V30 44 H -2.83932 -1.22877 -1.97265 0
M  V30 45 H -4.47022 -1.8272 -1.62662 0
M  V30 END ATOM
M  V30 BEGIN BOND
M  V30 1 1 1 2
M  V30 2 2 2 3
M  V30 3 1 3 4
M  V30 4 1 4 5
M  V30 5 2 4 6
M  V30 6 1 6 7
M  V30 7 2 7 8
M  V30 8 1 7 9
M  V30 9 1 9 10
M  V30 10 1 10 11
M  V30 11 1 11 12
M  V30 12 1 12 13
M  V30 13 1 13 14
M  V30 14 1 12 15
M  V30 15 2 15 16
M  V30 16 1 16 17
M  V30 17 2 17 18
M  V30 18 1 18 19
M  V30 19 1 19 20
M  V30 20 1 20 21
M  V30 21 1 20 22
M  V30 22 1 8 2
M  V30 23 1 14 9
M  V30 24 1 19 15
M  V30 25 1 1 23
M  V30 26 1 1 24
M  V30 27 1 5 25
M  V30 28 1 5 26
M  V30 29 1 8 27
M  V30 30 1 10 28
M  V30 31 1 10 29
M  V30 32 1 11 30
M  V30 33 1 11 31
M  V30 34 1 12 32
M  V30 35 1 13 33
M  V30 36 1 13 34
M  V30 37 1 14 35
M  V30 38 1 14 36
M  V30 39 1 17 37
M  V30 40 1 18 38
M  V30 41 1 20 39
M  V30 42 1 21 40
M  V30 43 1 21 41
M  V30 44 1 21 42
M  V30 45 1 22 43
M  V30 46 1 22 44
M  V30 47 1 22 45
M  V30 END BOND
M  V30 END CTAB
M  END
