
     RDKit          3D

  0  0  0  0  0  0  0  0  0  0999 V3000
M  V30 BEGIN CTAB
M  V30 COUNTS 41 42 0 0 0
M  V30 BEGIN ATOM
M  V30 1 C -2.51748 3.3209 -3.19111 0
M  V30 2 C -1.59489 2.50156 -2.35009 0
M  V30 3 C -2.04854 1.70395 -1.32899 0
M  V30 4 C -1.22496 0.938944 -0.538079 0
M  V30 5 C 0.148452 0.985973 -0.799922 0
M  V30 6 S 1.23516 0.000481114 0.21505 0
M  V30 7 C 2.9314 0.257163 -0.345893 0
M  V30 8 C 3.91854 -0.506663 0.419054 0
M  V30 9 C 4.26737 -1.77623 0.0155009 0
M  V30 10 C 5.21011 -2.52214 0.734943 0
M  V30 11 C 5.79393 -1.99488 1.84728 0
M  V30 12 C 5.43156 -0.713843 2.24101 0
M  V30 13 C 4.50508 0.0300101 1.54126 0
M  V30 14 C 0.647961 1.77299 -1.81524 0
M  V30 15 C -0.236167 2.53013 -2.58769 0
M  V30 16 Cl 0.449927 3.51107 -3.86269 0
M  V30 17 S -1.8364 -0.0690104 0.758017 0
M  V30 18 O -1.36717 -1.45383 0.521446 0
M  V30 19 O -1.19733 0.441075 2.03379 0
M  V30 20 N -3.53428 0.0877215 0.824862 0
M  V30 21 C -4.32118 -0.913927 1.0137 0
M  V30 22 N -5.73441 -0.778665 1.06864 0
M  V30 23 N -3.75699 -2.19824 1.17255 0
M  V30 24 N -3.57796 -2.77347 2.42627 0
M  V30 25 H -2.9584 2.73035 -4.02233 0
M  V30 26 H -3.36409 3.71387 -2.59261 0
M  V30 27 H -1.99853 4.19781 -3.62642 0
M  V30 28 H -3.12171 1.66908 -1.12663 0
M  V30 29 H 3.13061 1.35543 -0.295357 0
M  V30 30 H 2.96609 0.00542164 -1.44051 0
M  V30 31 H 3.8368 -2.22776 -0.84709 0
M  V30 32 H 5.47637 -3.52185 0.40627 0
M  V30 33 H 6.52087 -2.55668 2.41103 0
M  V30 34 H 5.88482 -0.282249 3.11957 0
M  V30 35 H 4.27826 1.01706 1.91255 0
M  V30 36 H 1.71365 1.79698 -2.00348 0
M  V30 37 H -6.29329 -1.40149 0.442168 0
M  V30 38 H -6.17292 -0.0773972 1.71756 0
M  V30 39 H -3.46497 -2.73504 0.336547 0
M  V30 40 H -4.14058 -2.2756 3.17314 0
M  V30 41 H -3.88472 -3.78899 2.42192 0
M  V30 END ATOM
M  V30 BEGIN BOND
M  V30 1 1 1 2
M  V30 2 2 2 3
M  V30 3 1 3 4
M  V30 4 2 4 5
M  V30 5 1 5 6
M  V30 6 1 6 7
M  V30 7 1 7 8
M  V30 8 2 8 9
M  V30 9 1 9 10
M  V30 10 2 10 11
M  V30 11 1 11 12
M  V30 12 2 12 13
M  V30 13 1 5 14
M  V30 14 2 14 15
M  V30 15 1 15 16
M  V30 16 1 4 17
M  V30 17 2 17 18
M  V30 18 2 17 19
M  V30 19 1 17 20
M  V30 20 2 20 21
M  V30 21 1 21 22
M  V30 22 1 21 23
M  V30 23 1 23 24
M  V30 24 1 15 2
M  V30 25 1 13 8
M  V30 26 1 1 25
M  V30 27 1 1 26
M  V30 28 1 1 27
M  V30 29 1 3 28
M  V30 30 1 7 29
M  V30 31 1 7 30
M  V30 32 1 9 31
M  V30 33 1 10 32
M  V30 34 1 11 33
M  V30 35 1 12 34
M  V30 36 1 13 35
M  V30 37 1 14 36
M  V30 38 1 22 37
M  V30 39 1 22 38
M  V30 40 1 23 39
M  V30 41 1 24 40
M  V30 42 1 24 41
M  V30 END BOND
M  V30 END CTAB
M  END
