
     RDKit          3D

  0  0  0  0  0  0  0  0  0  0999 V3000
M  V30 BEGIN CTAB
M  V30 COUNTS 25 25 0 0 0
M  V30 BEGIN ATOM
M  V30 1 C -2.29754 -0.37534 1.05427 0
M  V30 2 C -2.04338 -0.153629 -0.413822 0
M  V30 3 N -0.915735 0.696469 -0.686865 0
M  V30 4 C 0.422916 0.428118 -0.361206 0
M  V30 5 C 0.749319 -0.743671 0.256977 0
M  V30 6 C 2.08055 -1.02045 0.591604 0
M  V30 7 N 2.40604 -2.24821 1.23705 0
M  V30 8 N 2.99273 -0.0975792 0.280387 0
M  V30 9 C 2.6514 1.05896 -0.332823 0
M  V30 10 N 1.36952 1.31276 -0.648768 0
M  V30 11 N 3.65302 2.01438 -0.646493 0
M  V30 12 C -3.29837 0.451593 -1.00308 0
M  V30 13 H -1.45263 -0.0318908 1.68551 0
M  V30 14 H -3.23827 0.0916807 1.37644 0
M  V30 15 H -2.40839 -1.4637 1.22558 0
M  V30 16 H -1.88252 -1.14387 -0.925962 0
M  V30 17 H -1.11293 1.613 -1.18063 0
M  V30 18 H 0.0234944 -1.51773 0.519366 0
M  V30 19 H 2.35329 -3.12759 0.71718 0
M  V30 20 H 2.69831 -2.2695 2.23297 0
M  V30 21 H 3.74248 2.88126 -0.0914752 0
M  V30 22 H 4.30088 1.84755 -1.43485 0
M  V30 23 H -3.33418 1.54996 -0.852519 0
M  V30 24 H -4.16635 -0.0305758 -0.502787 0
M  V30 25 H -3.29367 0.278006 -2.09605 0
M  V30 END ATOM
M  V30 BEGIN BOND
M  V30 1 1 1 2
M  V30 2 1 2 3
M  V30 3 1 3 4
M  V30 4 2 4 5
M  V30 5 1 5 6
M  V30 6 1 6 7
M  V30 7 2 6 8
M  V30 8 1 8 9
M  V30 9 2 9 10
M  V30 10 1 9 11
M  V30 11 1 2 12
M  V30 12 1 10 4
M  V30 13 1 1 13
M  V30 14 1 1 14
M  V30 15 1 1 15
M  V30 16 1 2 16
M  V30 17 1 3 17
M  V30 18 1 5 18
M  V30 19 1 7 19
M  V30 20 1 7 20
M  V30 21 1 11 21
M  V30 22 1 11 22
M  V30 23 1 12 23
M  V30 24 1 12 24
M  V30 25 1 12 25
M  V30 END BOND
M  V30 END CTAB
M  END
