
     RDKit          3D

  0  0  0  0  0  0  0  0  0  0999 V3000
M  V30 BEGIN CTAB
M  V30 COUNTS 31 32 0 0 0
M  V30 BEGIN ATOM
M  V30 1 N -3.78297 3.16033 -1.02935 0
M  V30 2 N -3.17195 1.88084 -0.82292 0
M  V30 3 C -1.88784 1.83778 -0.34969 0
M  V30 4 O -1.31819 3.02168 -0.133347 0
M  V30 5 C -0.978672 0.747382 -0.026453 0
M  V30 6 C 0.428264 0.880429 -0.206719 0
M  V30 7 N 1.06897 -0.229771 0.154777 0
M  V30 8 N 0.172998 -1.06664 0.553443 0
M  V30 9 C -1.1055 -0.510672 0.460751 0
M  V30 10 C -2.27517 -1.27699 0.832567 0
M  V30 11 O -2.17186 -1.89978 1.98207 0
M  V30 12 N -3.46855 -1.45977 0.170368 0
M  V30 13 N -4.51064 -2.24861 0.732413 0
M  V30 14 C 2.50475 -0.409695 0.106456 0
M  V30 15 C 3.21433 -0.00770642 -1.00098 0
M  V30 16 C 4.60636 -0.149618 -1.04773 0
M  V30 17 C 5.30561 -0.692335 0.00513095 0
M  V30 18 C 4.58515 -1.09722 1.11999 0
M  V30 19 C 3.20202 -0.952577 1.15805 0
M  V30 20 H -3.53082 3.55218 -1.94644 0
M  V30 21 H -3.5396 3.75474 -0.206788 0
M  V30 22 H -3.76907 1.11133 -1.07839 0
M  V30 23 H 0.907505 1.76178 -0.591179 0
M  V30 24 H -3.66399 -1.06441 -0.794463 0
M  V30 25 H -4.20615 -2.58001 1.6643 0
M  V30 26 H -4.67516 -3.03861 0.0973929 0
M  V30 27 H 2.66545 0.419345 -1.84273 0
M  V30 28 H 5.16838 0.159641 -1.91059 0
M  V30 29 H 6.39279 -0.805498 -0.0154831 0
M  V30 30 H 5.1706 -1.51586 1.92495 0
M  V30 31 H 2.66297 -1.28169 2.0406 0
M  V30 END ATOM
M  V30 BEGIN BOND
M  V30 1 1 1 2
M  V30 2 1 2 3
M  V30 3 2 3 4
M  V30 4 1 3 5
M  V30 5 2 5 6
M  V30 6 1 6 7
M  V30 7 1 7 8
M  V30 8 2 8 9
M  V30 9 1 9 10
M  V30 10 2 10 11
M  V30 11 1 10 12
M  V30 12 1 12 13
M  V30 13 1 7 14
M  V30 14 2 14 15
M  V30 15 1 15 16
M  V30 16 2 16 17
M  V30 17 1 17 18
M  V30 18 2 18 19
M  V30 19 1 9 5
M  V30 20 1 19 14
M  V30 21 1 1 20
M  V30 22 1 1 21
M  V30 23 1 2 22
M  V30 24 1 6 23
M  V30 25 1 12 24
M  V30 26 1 13 25
M  V30 27 1 13 26
M  V30 28 1 15 27
M  V30 29 1 16 28
M  V30 30 1 17 29
M  V30 31 1 18 30
M  V30 32 1 19 31
M  V30 END BOND
M  V30 END CTAB
M  END
