
     RDKit          3D

  0  0  0  0  0  0  0  0  0  0999 V3000
M  V30 BEGIN CTAB
M  V30 COUNTS 30 31 0 0 0
M  V30 BEGIN ATOM
M  V30 1 C -2.36905 -1.06226 -1.31149 0
M  V30 2 C -1.91032 -0.858143 0.113013 0
M  V30 3 C -3.03707 -0.437327 1.02786 0
M  V30 4 C -3.07815 1.06706 0.956969 0
M  V30 5 C -1.83276 1.45313 0.204094 0
M  V30 6 N -0.998544 0.269385 0.222555 0
M  V30 7 C 0.419258 0.24578 0.327431 0
M  V30 8 C 1.14089 1.417 0.40621 0
M  V30 9 C 2.51791 1.42985 0.509478 0
M  V30 10 C 3.18507 0.225194 0.533846 0
M  V30 11 C 2.45495 -0.94429 0.454444 0
M  V30 12 N 1.12116 -0.898443 0.355664 0
M  V30 13 N 3.16356 -2.19936 0.48083 0
M  V30 14 N 4.58756 0.19904 0.638194 0
M  V30 15 H -2.66507 -0.0671819 -1.69932 0
M  V30 16 H -1.49138 -1.4279 -1.88019 0
M  V30 17 H -3.21449 -1.76433 -1.32232 0
M  V30 18 H -1.4417 -1.80639 0.452825 0
M  V30 19 H -4.01559 -0.848137 0.643566 0
M  V30 20 H -2.83797 -0.80816 2.06315 0
M  V30 21 H -3.08362 1.46976 1.97481 0
M  V30 22 H -3.9667 1.42547 0.370073 0
M  V30 23 H -2.02421 1.73759 -0.844687 0
M  V30 24 H -1.3798 2.29156 0.735278 0
M  V30 25 H 0.618382 2.36733 0.386734 0
M  V30 26 H 3.07572 2.34739 0.570664 0
M  V30 27 H 3.87992 -2.34276 -0.276047 0
M  V30 28 H 2.93943 -2.87371 1.21837 0
M  V30 29 H 5.13959 1.05369 0.435116 0
M  V30 30 H 5.10302 -0.660852 0.916546 0
M  V30 END ATOM
M  V30 BEGIN BOND
M  V30 1 1 1 2
M  V30 2 1 2 3
M  V30 3 1 3 4
M  V30 4 1 4 5
M  V30 5 1 5 6
M  V30 6 1 6 7
M  V30 7 2 7 8
M  V30 8 1 8 9
M  V30 9 2 9 10
M  V30 10 1 10 11
M  V30 11 2 11 12
M  V30 12 1 11 13
M  V30 13 1 10 14
M  V30 14 1 6 2
M  V30 15 1 12 7
M  V30 16 1 1 15
M  V30 17 1 1 16
M  V30 18 1 1 17
M  V30 19 1 2 18
M  V30 20 1 3 19
M  V30 21 1 3 20
M  V30 22 1 4 21
M  V30 23 1 4 22
M  V30 24 1 5 23
M  V30 25 1 5 24
M  V30 26 1 8 25
M  V30 27 1 9 26
M  V30 28 1 13 27
M  V30 29 1 13 28
M  V30 30 1 14 29
M  V30 31 1 14 30
M  V30 END BOND
M  V30 END CTAB
M  END
