
     RDKit          3D

  0  0  0  0  0  0  0  0  0  0999 V3000
M  V30 BEGIN CTAB
M  V30 COUNTS 28 28 0 0 0
M  V30 BEGIN ATOM
M  V30 1 N -2.72835 -0.983021 1.3974 0
M  V30 2 C -1.39543 -0.420067 1.12531 0
M  V30 3 C -1.50486 0.290148 -0.178083 0
M  V30 4 C -0.312561 1.07983 -0.578708 0
M  V30 5 C 0.929278 0.340956 -0.732475 0
M  V30 6 C 1.34242 -0.236684 -1.91215 0
M  V30 7 C 2.54797 -0.911352 -1.91644 0
M  V30 8 N 3.32311 -1.02354 -0.825422 0
M  V30 9 C 2.93605 -0.467999 0.328645 0
M  V30 10 C 1.74597 0.208401 0.368194 0
M  V30 11 N 3.73007 -0.568648 1.49472 0
M  V30 12 O -1.88039 -0.634084 -1.15121 0
M  V30 13 C -2.67735 1.26995 -0.048073 0
M  V30 14 H -2.77666 -1.98493 1.20479 0
M  V30 15 H -3.11308 -0.661514 2.28909 0
M  V30 16 H -0.714535 -1.30927 1.08606 0
M  V30 17 H -1.04001 0.19654 1.96195 0
M  V30 18 H -0.531484 1.60973 -1.52848 0
M  V30 19 H -0.167239 1.88557 0.192996 0
M  V30 20 H 0.727873 -0.162171 -2.8262 0
M  V30 21 H 2.89252 -1.37952 -2.85409 0
M  V30 22 H 1.47277 0.647853 1.34371 0
M  V30 23 H 3.63789 -1.39218 2.11247 0
M  V30 24 H 4.39466 0.189883 1.71079 0
M  V30 25 H -1.92723 -0.199234 -2.03874 0
M  V30 26 H -2.43493 2.24321 -0.518116 0
M  V30 27 H -3.58226 0.892928 -0.543826 0
M  V30 28 H -2.89419 1.47921 1.03588 0
M  V30 END ATOM
M  V30 BEGIN BOND
M  V30 1 1 1 2
M  V30 2 1 2 3
M  V30 3 1 3 4
M  V30 4 1 4 5
M  V30 5 2 5 6
M  V30 6 1 6 7
M  V30 7 2 7 8
M  V30 8 1 8 9
M  V30 9 2 9 10
M  V30 10 1 9 11
M  V30 11 1 3 12
M  V30 12 1 3 13
M  V30 13 1 10 5
M  V30 14 1 1 14
M  V30 15 1 1 15
M  V30 16 1 2 16
M  V30 17 1 2 17
M  V30 18 1 4 18
M  V30 19 1 4 19
M  V30 20 1 6 20
M  V30 21 1 7 21
M  V30 22 1 10 22
M  V30 23 1 11 23
M  V30 24 1 11 24
M  V30 25 1 12 25
M  V30 26 1 13 26
M  V30 27 1 13 27
M  V30 28 1 13 28
M  V30 END BOND
M  V30 END CTAB
M  END
