
     RDKit          3D

  0  0  0  0  0  0  0  0  0  0999 V3000
M  V30 BEGIN CTAB
M  V30 COUNTS 26 27 0 0 0
M  V30 BEGIN ATOM
M  V30 1 O 4.64149 0.469568 -0.670705 0
M  V30 2 N 3.27834 0.437205 -0.948482 0
M  V30 3 C 2.45348 0.0681548 -0.0394276 0
M  V30 4 C 1.01276 0.0178215 -0.283311 0
M  V30 5 C 0.163947 -0.384235 0.720859 0
M  V30 6 C -1.19218 -0.424037 0.467916 0
M  V30 7 C -2.37802 -0.807795 1.32235 0
M  V30 8 C -3.4306 0.098604 0.682456 0
M  V30 9 C -3.12807 -0.189914 -0.789932 0
M  V30 10 C -1.65126 -0.0604675 -0.779897 0
M  V30 11 N -0.785045 0.323609 -1.72382 0
M  V30 12 C 0.535269 0.381673 -1.53709 0
M  V30 13 N 1.46382 0.78438 -2.52114 0
M  V30 14 N 2.98779 -0.294301 1.22579 0
M  V30 15 H 4.97704 1.38259 -0.344285 0
M  V30 16 H 0.553747 -0.667988 1.70342 0
M  V30 17 H -2.63969 -1.87109 1.19084 0
M  V30 18 H -2.23529 -0.501294 2.36882 0
M  V30 19 H -4.44079 -0.155668 0.965078 0
M  V30 20 H -3.11372 1.12253 0.868606 0
M  V30 21 H -3.63099 0.506548 -1.46387 0
M  V30 22 H -3.4175 -1.24273 -1.02949 0
M  V30 23 H 1.85193 0.0853006 -3.17365 0
M  V30 24 H 1.76612 1.76848 -2.60429 0
M  V30 25 H 3.12299 0.450114 1.94223 0
M  V30 26 H 3.23444 -1.29705 1.4139 0
M  V30 END ATOM
M  V30 BEGIN BOND
M  V30 1 1 1 2
M  V30 2 2 2 3
M  V30 3 1 3 4
M  V30 4 2 4 5
M  V30 5 1 5 6
M  V30 6 1 6 7
M  V30 7 1 7 8
M  V30 8 1 8 9
M  V30 9 1 9 10
M  V30 10 1 10 11
M  V30 11 2 11 12
M  V30 12 1 12 13
M  V30 13 1 3 14
M  V30 14 1 12 4
M  V30 15 2 10 6
M  V30 16 1 1 15
M  V30 17 1 5 16
M  V30 18 1 7 17
M  V30 19 1 7 18
M  V30 20 1 8 19
M  V30 21 1 8 20
M  V30 22 1 9 21
M  V30 23 1 9 22
M  V30 24 1 13 23
M  V30 25 1 13 24
M  V30 26 1 14 25
M  V30 27 1 14 26
M  V30 END BOND
M  V30 END CTAB
M  END
