
     RDKit          3D

  0  0  0  0  0  0  0  0  0  0999 V3000
M  V30 BEGIN CTAB
M  V30 COUNTS 35 36 0 0 0
M  V30 BEGIN ATOM
M  V30 1 N -5.24715 0.0462503 0.771474 0
M  V30 2 C -4.10033 0.803333 1.1614 0
M  V30 3 C -3.07809 0.698177 0.0181845 0
M  V30 4 C -2.73196 -0.762127 -0.171984 0
M  V30 5 C -1.74061 -0.973392 -1.27657 0
M  V30 6 C -0.463922 -0.257928 -1.01861 0
M  V30 7 C 0.155774 -0.755357 0.270405 0
M  V30 8 N 1.40341 0.00623879 0.420055 0
M  V30 9 C 1.56309 1.19154 1.0535 0
M  V30 10 N 2.86376 1.51455 0.943614 0
M  V30 11 C 3.52018 0.556819 0.25527 0
M  V30 12 C 2.58147 -0.407522 -0.0783413 0
M  V30 13 N 3.0173 -1.46779 -0.775019 0
M  V30 14 C 4.27214 -1.655 -1.16273 0
M  V30 15 N 5.17859 -0.707268 -0.831248 0
M  V30 16 C 4.83696 0.389841 -0.134935 0
M  V30 17 N 5.79643 1.3737 0.205035 0
M  V30 18 H -5.64504 -0.55622 1.50703 0
M  V30 19 H -5.93184 0.683341 0.315638 0
M  V30 20 H -4.38832 1.88515 1.25609 0
M  V30 21 H -3.64365 0.51391 2.11097 0
M  V30 22 H -3.5129 1.10853 -0.914602 0
M  V30 23 H -2.18736 1.29832 0.292886 0
M  V30 24 H -2.39662 -1.17441 0.791293 0
M  V30 25 H -3.65028 -1.3327 -0.446949 0
M  V30 26 H -1.53598 -2.064 -1.43198 0
M  V30 27 H -2.13973 -0.629076 -2.26128 0
M  V30 28 H 0.255938 -0.367314 -1.87259 0
M  V30 29 H -0.663107 0.829607 -0.935991 0
M  V30 30 H -0.503786 -0.592703 1.13742 0
M  V30 31 H 0.412326 -1.83031 0.202256 0
M  V30 32 H 0.74819 1.7101 1.52945 0
M  V30 33 H 4.60713 -2.52981 -1.73204 0
M  V30 34 H 5.53118 2.26705 0.634678 0
M  V30 35 H 6.8168 1.18647 0.0123191 0
M  V30 END ATOM
M  V30 BEGIN BOND
M  V30 1 1 1 2
M  V30 2 1 2 3
M  V30 3 1 3 4
M  V30 4 1 4 5
M  V30 5 1 5 6
M  V30 6 1 6 7
M  V30 7 1 7 8
M  V30 8 1 8 9
M  V30 9 2 9 10
M  V30 10 1 10 11
M  V30 11 2 11 12
M  V30 12 1 12 13
M  V30 13 2 13 14
M  V30 14 1 14 15
M  V30 15 2 15 16
M  V30 16 1 16 17
M  V30 17 1 12 8
M  V30 18 1 16 11
M  V30 19 1 1 18
M  V30 20 1 1 19
M  V30 21 1 2 20
M  V30 22 1 2 21
M  V30 23 1 3 22
M  V30 24 1 3 23
M  V30 25 1 4 24
M  V30 26 1 4 25
M  V30 27 1 5 26
M  V30 28 1 5 27
M  V30 29 1 6 28
M  V30 30 1 6 29
M  V30 31 1 7 30
M  V30 32 1 7 31
M  V30 33 1 9 32
M  V30 34 1 14 33
M  V30 35 1 17 34
M  V30 36 1 17 35
M  V30 END BOND
M  V30 END CTAB
M  END
