
     RDKit          3D

  0  0  0  0  0  0  0  0  0  0999 V3000
M  V30 BEGIN CTAB
M  V30 COUNTS 24 25 0 0 0
M  V30 BEGIN ATOM
M  V30 1 C 4.57363 0.530866 -0.0583652 0
M  V30 2 O 3.34661 1.19992 0.0390243 0
M  V30 3 C 2.12787 0.515224 -0.00673037 0
M  V30 4 C 0.948741 1.22396 0.0937889 0
M  V30 5 C -0.293721 0.580028 0.0528527 0
M  V30 6 C -0.257251 -0.791026 -0.09271 0
M  V30 7 C 0.913473 -1.50046 -0.193115 0
M  V30 8 C 2.11169 -0.85768 -0.151345 0
M  V30 9 N -1.47145 -1.4182 -0.132522 0
M  V30 10 C -2.62222 -0.733425 -0.0351865 0
M  V30 11 N -3.87373 -1.43048 -0.0815724 0
M  V30 12 C -2.63815 0.64069 0.110254 0
M  V30 13 N -3.8575 1.36452 0.213204 0
M  V30 14 N -1.43732 1.25271 0.148755 0
M  V30 15 H 5.37705 1.26913 0.234215 0
M  V30 16 H 4.64703 -0.366536 0.591569 0
M  V30 17 H 4.8383 0.259685 -1.11902 0
M  V30 18 H 0.948094 2.31244 0.208738 0
M  V30 19 H 0.862063 -2.57861 -0.30584 0
M  V30 20 H 3.07573 -1.37802 -0.227282 0
M  V30 21 H -3.95895 -2.40096 -0.406844 0
M  V30 22 H -4.75206 -0.952783 0.223281 0
M  V30 23 H -4.3467 1.65155 -0.65762 0
M  V30 24 H -4.26125 1.60744 1.12406 0
M  V30 END ATOM
M  V30 BEGIN BOND
M  V30 1 1 1 2
M  V30 2 1 2 3
M  V30 3 2 3 4
M  V30 4 1 4 5
M  V30 5 2 5 6
M  V30 6 1 6 7
M  V30 7 2 7 8
M  V30 8 1 6 9
M  V30 9 2 9 10
M  V30 10 1 10 11
M  V30 11 1 10 12
M  V30 12 1 12 13
M  V30 13 2 12 14
M  V30 14 1 8 3
M  V30 15 1 14 5
M  V30 16 1 1 15
M  V30 17 1 1 16
M  V30 18 1 1 17
M  V30 19 1 4 18
M  V30 20 1 7 19
M  V30 21 1 8 20
M  V30 22 1 11 21
M  V30 23 1 11 22
M  V30 24 1 13 23
M  V30 25 1 13 24
M  V30 END BOND
M  V30 END CTAB
M  END
