
     RDKit          3D

  0  0  0  0  0  0  0  0  0  0999 V3000
M  V30 BEGIN CTAB
M  V30 COUNTS 31 30 0 0 0
M  V30 BEGIN ATOM
M  V30 1 C -3.97817 -1.3597 -0.470839 0
M  V30 2 C -2.68776 -0.766855 -0.920569 0
M  V30 3 O -2.28685 -1.0805 -2.06439 0
M  V30 4 N -1.91814 0.11505 -0.123195 0
M  V30 5 C -0.694978 0.640713 -0.622672 0
M  V30 6 C 0.501543 -0.261888 -0.27129 0
M  V30 7 C 1.69919 0.408227 -0.852585 0
M  V30 8 C 3.00354 -0.287547 -0.643813 0
M  V30 9 N 4.03117 0.538423 -1.29141 0
M  V30 10 C 3.36514 -0.55699 0.730656 0
M  V30 11 O 4.53139 -0.0435962 1.25869 0
M  V30 12 O 2.65239 -1.25118 1.48255 0
M  V30 13 C -2.34885 0.489777 1.18188 0
M  V30 14 N -2.60961 1.81742 1.57668 0
M  V30 15 N -2.51388 -0.44515 2.0693 0
M  V30 16 H -4.72489 -1.35042 -1.30501 0
M  V30 17 H -4.40944 -0.682006 0.310387 0
M  V30 18 H -3.84623 -2.37796 -0.0509496 0
M  V30 19 H -0.422875 1.64036 -0.199719 0
M  V30 20 H -0.664511 0.770561 -1.72627 0
M  V30 21 H 0.340073 -1.2822 -0.676883 0
M  V30 22 H 0.494053 -0.261757 0.855698 0
M  V30 23 H 1.74693 1.4407 -0.40326 0
M  V30 24 H 1.50212 0.577501 -1.93074 0
M  V30 25 H 2.97164 -1.23947 -1.23096 0
M  V30 26 H 3.71259 1.53272 -1.38701 0
M  V30 27 H 4.90716 0.552243 -0.721027 0
M  V30 28 H 5.41246 -0.530922 1.28042 0
M  V30 29 H -3.16563 2.48853 0.992219 0
M  V30 30 H -2.25841 2.21057 2.48539 0
M  V30 31 H -2.34118 -1.44465 1.85105 0
M  V30 END ATOM
M  V30 BEGIN BOND
M  V30 1 1 1 2
M  V30 2 2 2 3
M  V30 3 1 2 4
M  V30 4 1 4 5
M  V30 5 1 5 6
M  V30 6 1 6 7
M  V30 7 1 7 8
M  V30 8 1 8 9
M  V30 9 1 8 10
M  V30 10 1 10 11
M  V30 11 2 10 12
M  V30 12 1 4 13
M  V30 13 1 13 14
M  V30 14 2 13 15 CFG=2
M  V30 15 1 1 16
M  V30 16 1 1 17
M  V30 17 1 1 18
M  V30 18 1 5 19
M  V30 19 1 5 20
M  V30 20 1 6 21
M  V30 21 1 6 22
M  V30 22 1 7 23
M  V30 23 1 7 24
M  V30 24 1 8 25
M  V30 25 1 9 26
M  V30 26 1 9 27
M  V30 27 1 11 28
M  V30 28 1 14 29
M  V30 29 1 14 30
M  V30 30 1 15 31
M  V30 END BOND
M  V30 END CTAB
M  END
