
     RDKit          3D

  0  0  0  0  0  0  0  0  0  0999 V3000
M  V30 BEGIN CTAB
M  V30 COUNTS 12 11 0 0 0
M  V30 BEGIN ATOM
M  V30 1 C -1.27645 -0.689353 0.348149 0
M  V30 2 P 0.21645 0.0271447 -0.336863 0
M  V30 3 N 1.67293 -0.636494 0.331481 0
M  V30 4 N 0.261949 1.76669 -0.0690658 0
M  V30 5 O 0.227792 -0.166395 -1.8478 0
M  V30 6 H -1.19594 -1.00116 1.39594 0
M  V30 7 H -1.60768 -1.56995 -0.257407 0
M  V30 8 H -2.10801 0.0602257 0.251035 0
M  V30 9 H 2.41079 -0.631688 -0.416901 0
M  V30 10 H 1.56373 -1.52204 0.823302 0
M  V30 11 H 0.186706 2.30914 -0.931382 0
M  V30 12 H -0.352275 2.05387 0.709509 0
M  V30 END ATOM
M  V30 BEGIN BOND
M  V30 1 1 1 2
M  V30 2 1 2 3
M  V30 3 1 2 4
M  V30 4 2 2 5
M  V30 5 1 1 6
M  V30 6 1 1 7
M  V30 7 1 1 8
M  V30 8 1 3 9
M  V30 9 1 3 10
M  V30 10 1 4 11
M  V30 11 1 4 12
M  V30 END BOND
M  V30 END CTAB
M  END
