
     RDKit          3D

  0  0  0  0  0  0  0  0  0  0999 V3000
M  V30 BEGIN CTAB
M  V30 COUNTS 28 27 0 0 0
M  V30 BEGIN ATOM
M  V30 1 N 3.02609 -0.358287 -0.0904406 0
M  V30 2 C 1.64703 -0.690508 -0.395603 0
M  V30 3 C 0.754804 0.286549 0.332505 0
M  V30 4 C -0.705804 0.0342878 0.0397799 0
M  V30 5 C -1.12446 -1.35676 0.463138 0
M  V30 6 N -2.52646 -1.49388 0.142258 0
M  V30 7 C -0.963942 0.280875 -1.4167 0
M  V30 8 C -1.53771 1.00414 0.867423 0
M  V30 9 O 0.966082 0.200959 1.72286 0
M  V30 10 C 1.14383 1.67036 -0.114198 0
M  V30 11 H 3.67252 -0.832117 -0.767987 0
M  V30 12 H 3.1744 0.67009 -0.0783847 0
M  V30 13 H 1.44452 -0.589746 -1.47545 0
M  V30 14 H 1.50211 -1.74016 -0.0695743 0
M  V30 15 H -1.0171 -1.48903 1.55837 0
M  V30 16 H -0.495934 -2.12581 -0.0263063 0
M  V30 17 H -3.11571 -1.79178 0.930049 0
M  V30 18 H -2.70923 -1.94935 -0.757319 0
M  V30 19 H -0.671009 1.2973 -1.67843 0
M  V30 20 H -0.512112 -0.504988 -2.04759 0
M  V30 21 H -2.07252 0.21525 -1.61738 0
M  V30 22 H -2.45874 0.528173 1.23777 0
M  V30 23 H -1.82045 1.88358 0.243585 0
M  V30 24 H -0.937463 1.32304 1.76177 0
M  V30 25 H 1.59994 -0.53469 1.9416 0
M  V30 26 H 1.88595 2.0918 0.614562 0
M  V30 27 H 0.257835 2.35355 -0.197651 0
M  V30 28 H 1.59354 1.61716 -1.12266 0
M  V30 END ATOM
M  V30 BEGIN BOND
M  V30 1 1 1 2
M  V30 2 1 2 3
M  V30 3 1 3 4
M  V30 4 1 4 5
M  V30 5 1 5 6
M  V30 6 1 4 7
M  V30 7 1 4 8
M  V30 8 1 3 9
M  V30 9 1 3 10
M  V30 10 1 1 11
M  V30 11 1 1 12
M  V30 12 1 2 13
M  V30 13 1 2 14
M  V30 14 1 5 15
M  V30 15 1 5 16
M  V30 16 1 6 17
M  V30 17 1 6 18
M  V30 18 1 7 19
M  V30 19 1 7 20
M  V30 20 1 7 21
M  V30 21 1 8 22
M  V30 22 1 8 23
M  V30 23 1 8 24
M  V30 24 1 9 25
M  V30 25 1 10 26
M  V30 26 1 10 27
M  V30 27 1 10 28
M  V30 END BOND
M  V30 END CTAB
M  END
