
     RDKit          3D

  0  0  0  0  0  0  0  0  0  0999 V3000
M  V30 BEGIN CTAB
M  V30 COUNTS 28 29 0 0 0
M  V30 BEGIN ATOM
M  V30 1 N 3.4801 2.00747 0.153367 0
M  V30 2 C 3.1631 0.61001 0.123828 0
M  V30 3 C 4.10351 -0.381915 0.236175 0
M  V30 4 C 3.71199 -1.68512 0.183142 0
M  V30 5 N 4.74866 -2.69356 0.30739 0
M  V30 6 N 2.4253 -2.01016 0.0115346 0
M  V30 7 C 1.49261 -1.088 -0.104128 0
M  V30 8 N 1.88689 0.237175 -0.0460705 0
M  V30 9 S -0.280814 -1.38562 -0.387189 0
M  V30 10 C -1.08207 0.241938 -0.225129 0
M  V30 11 C -2.5121 0.275246 -0.217182 0
M  V30 12 C -3.2867 -0.347752 0.732959 0
M  V30 13 Cl -2.41592 -1.47203 1.80131 0
M  V30 14 C -4.65596 -0.153905 0.857253 0
M  V30 15 C -5.3197 0.712657 0.000927803 0
M  V30 16 C -4.54234 1.35583 -0.965154 0
M  V30 17 C -3.18258 1.14884 -1.07936 0
M  V30 18 Cl -2.28158 1.96165 -2.34126 0
M  V30 19 H 3.47188 2.48216 1.07391 0
M  V30 20 H 3.709 2.57443 -0.67186 0
M  V30 21 H 5.1282 -0.0284185 0.38056 0
M  V30 22 H 5.4387 -2.83418 -0.39818 0
M  V30 23 H 4.69557 -3.23242 1.17488 0
M  V30 24 H -0.766084 0.755483 -1.24278 0
M  V30 25 H -0.524811 0.818789 0.523655 0
M  V30 26 H -5.17913 -0.695531 1.61105 0
M  V30 27 H -6.36909 0.802583 0.116691 0
M  V30 28 H -5.05662 2.02435 -1.61034 0
M  V30 END ATOM
M  V30 BEGIN BOND
M  V30 1 1 1 2
M  V30 2 2 2 3
M  V30 3 1 3 4
M  V30 4 1 4 5
M  V30 5 2 4 6
M  V30 6 1 6 7
M  V30 7 2 7 8
M  V30 8 1 7 9
M  V30 9 1 9 10
M  V30 10 1 10 11
M  V30 11 2 11 12
M  V30 12 1 12 13
M  V30 13 1 12 14
M  V30 14 2 14 15
M  V30 15 1 15 16
M  V30 16 2 16 17
M  V30 17 1 17 18
M  V30 18 1 8 2
M  V30 19 1 17 11
M  V30 20 1 1 19
M  V30 21 1 1 20
M  V30 22 1 3 21
M  V30 23 1 5 22
M  V30 24 1 5 23
M  V30 25 1 10 24
M  V30 26 1 10 25
M  V30 27 1 14 26
M  V30 28 1 15 27
M  V30 29 1 16 28
M  V30 END BOND
M  V30 END CTAB
M  END
