
     RDKit          3D

  0  0  0  0  0  0  0  0  0  0999 V3000
M  V30 BEGIN CTAB
M  V30 COUNTS 17 16 0 0 0
M  V30 BEGIN ATOM
M  V30 1 N -3.69182 0.329724 -0.0935195 0
M  V30 2 N -2.54724 -0.371597 0.260624 0
M  V30 3 C -1.27903 0.176016 -0.0197522 0
M  V30 4 O -1.23047 1.29469 -0.587953 0
M  V30 5 C -0.0374298 -0.519019 0.331 0
M  V30 6 C 1.20394 0.182966 -0.0276047 0
M  V30 7 O 1.12294 1.29159 -0.59032 0
M  V30 8 N 2.47479 -0.356136 0.243848 0
M  V30 9 N 3.64223 0.315247 -0.099117 0
M  V30 10 H -3.69374 0.413631 -1.13904 0
M  V30 11 H -3.59533 1.29024 0.3286 0
M  V30 12 H -2.6758 -1.30779 0.736351 0
M  V30 13 H -0.0223475 -1.49823 -0.223286 0
M  V30 14 H -0.0575694 -0.709621 1.42777 0
M  V30 15 H 2.55709 -1.27392 0.709695 0
M  V30 16 H 3.42433 1.04125 -0.839368 0
M  V30 17 H 4.40547 -0.29904 -0.417924 0
M  V30 END ATOM
M  V30 BEGIN BOND
M  V30 1 1 1 2
M  V30 2 1 2 3
M  V30 3 2 3 4
M  V30 4 1 3 5
M  V30 5 1 5 6
M  V30 6 2 6 7
M  V30 7 1 6 8
M  V30 8 1 8 9
M  V30 9 1 1 10
M  V30 10 1 1 11
M  V30 11 1 2 12
M  V30 12 1 5 13
M  V30 13 1 5 14
M  V30 14 1 8 15
M  V30 15 1 9 16
M  V30 16 1 9 17
M  V30 END BOND
M  V30 END CTAB
M  END
