
     RDKit          3D

  0  0  0  0  0  0  0  0  0  0999 V3000
M  V30 BEGIN CTAB
M  V30 COUNTS 19 19 0 0 0
M  V30 BEGIN ATOM
M  V30 1 F 2.38667 -1.52369 0.978798 0
M  V30 2 C 2.26604 -0.668425 -0.10573 0
M  V30 3 C 1.01468 0.126517 -0.000139868 0
M  V30 4 C 1.03494 1.49258 0.152294 0
M  V30 5 Br 2.73701 2.35909 0.226427 0
M  V30 6 C -0.155429 2.19473 0.246685 0
M  V30 7 C -1.36252 1.51966 0.187352 0
M  V30 8 C -1.39767 0.151878 0.0349263 0
M  V30 9 C -0.210749 -0.535098 -0.0577248 0
M  V30 10 N -0.199527 -1.94223 -0.215193 0
M  V30 11 N -2.61529 -0.574137 -0.0299635 0
M  V30 12 F 2.34668 -1.34765 -1.29999 0
M  V30 13 H 3.13381 0.0270593 -0.0396738 0
M  V30 14 H -0.0928516 3.26978 0.36603 0
M  V30 15 H -2.28577 2.10129 0.264702 0
M  V30 16 H -0.609316 -2.33812 -1.08233 0
M  V30 17 H 0.192405 -2.60168 0.481483 0
M  V30 18 H -3.49678 -0.233328 0.427945 0
M  V30 19 H -2.68634 -1.47822 -0.5359 0
M  V30 END ATOM
M  V30 BEGIN BOND
M  V30 1 1 1 2
M  V30 2 1 2 3
M  V30 3 2 3 4
M  V30 4 1 4 5
M  V30 5 1 4 6
M  V30 6 2 6 7
M  V30 7 1 7 8
M  V30 8 2 8 9
M  V30 9 1 9 10
M  V30 10 1 8 11
M  V30 11 1 2 12
M  V30 12 1 9 3
M  V30 13 1 2 13
M  V30 14 1 6 14
M  V30 15 1 7 15
M  V30 16 1 10 16
M  V30 17 1 10 17
M  V30 18 1 11 18
M  V30 19 1 11 19
M  V30 END BOND
M  V30 END CTAB
M  END
