
     RDKit          3D

  0  0  0  0  0  0  0  0  0  0999 V3000
M  V30 BEGIN CTAB
M  V30 COUNTS 27 28 0 0 0
M  V30 BEGIN ATOM
M  V30 1 N -2.13753 -2.01362 0.303608 0
M  V30 2 C -2.18858 -0.75843 -0.40491 0
M  V30 3 C -1.06916 0.0736064 -0.506529 0
M  V30 4 N 0.100584 -0.327488 0.158584 0
M  V30 5 C 1.42077 0.065594 0.0152244 0
M  V30 6 C 2.3286 -0.224482 1.04231 0
M  V30 7 N 1.85094 -0.844679 2.20194 0
M  V30 8 C 3.6669 0.0698431 0.974876 0
M  V30 9 N 4.15535 0.673263 -0.136222 0
M  V30 10 C 3.34677 0.9784 -1.15551 0
M  V30 11 C 1.97664 0.67324 -1.08028 0
M  V30 12 C -1.17934 1.25315 -1.19195 0
M  V30 13 C -2.39623 1.57769 -1.76217 0
M  V30 14 C -3.47403 0.739792 -1.64501 0
M  V30 15 C -3.40585 -0.456816 -0.9615 0
M  V30 16 H -1.63646 -2.79616 -0.147939 0
M  V30 17 H -2.59074 -2.12367 1.23702 0
M  V30 18 H -0.0732895 -1.08169 0.920348 0
M  V30 19 H 2.26759 -1.72451 2.57849 0
M  V30 20 H 1.04896 -0.421571 2.71827 0
M  V30 21 H 4.36402 -0.156019 1.77035 0
M  V30 22 H 3.71599 1.45789 -2.04662 0
M  V30 23 H 1.38064 0.906316 -1.94687 0
M  V30 24 H -0.354134 1.97273 -1.27959 0
M  V30 25 H -2.44603 2.52789 -2.30351 0
M  V30 26 H -4.39717 1.03935 -2.10711 0
M  V30 27 H -4.2752 -1.07962 -0.895512 0
M  V30 END ATOM
M  V30 BEGIN BOND
M  V30 1 1 1 2
M  V30 2 2 2 3
M  V30 3 1 3 4
M  V30 4 1 4 5
M  V30 5 2 5 6
M  V30 6 1 6 7
M  V30 7 1 6 8
M  V30 8 2 8 9
M  V30 9 1 9 10
M  V30 10 2 10 11
M  V30 11 1 3 12
M  V30 12 2 12 13
M  V30 13 1 13 14
M  V30 14 2 14 15
M  V30 15 1 15 2
M  V30 16 1 11 5
M  V30 17 1 1 16
M  V30 18 1 1 17
M  V30 19 1 4 18
M  V30 20 1 7 19
M  V30 21 1 7 20
M  V30 22 1 8 21
M  V30 23 1 10 22
M  V30 24 1 11 23
M  V30 25 1 12 24
M  V30 26 1 13 25
M  V30 27 1 14 26
M  V30 28 1 15 27
M  V30 END BOND
M  V30 END CTAB
M  END
