
     RDKit          3D

  0  0  0  0  0  0  0  0  0  0999 V3000
M  V30 BEGIN CTAB
M  V30 COUNTS 48 51 0 0 0
M  V30 BEGIN ATOM
M  V30 1 N 6.23074 2.7577 1.47629 0
M  V30 2 C 5.45218 1.75861 0.855505 0
M  V30 3 N 4.3602 1.29624 1.58098 0
M  V30 4 C 3.44552 0.458894 0.934967 0
M  V30 5 O 2.32108 -0.145326 1.41325 0
M  V30 6 C 1.51338 -0.564567 0.317069 0
M  V30 7 C 2.35945 -0.440305 -0.899328 0
M  V30 8 C 3.64809 0.13475 -0.374448 0
M  V30 9 C 4.74892 0.581048 -1.08936 0
M  V30 10 N 5.62805 1.38798 -0.423055 0
M  V30 11 N 4.97457 0.0357986 -2.36871 0
M  V30 12 C 1.11854 -2.02907 0.475544 0
M  V30 13 O 0.87471 -2.47941 -0.847092 0
M  V30 14 C -0.450103 -2.32487 -1.1445 0
M  V30 15 C -0.91747 -0.913002 -1.28034 0
M  V30 16 N -0.888212 -0.151553 -0.12852 0
M  V30 17 C 0.327726 0.331536 0.362907 0
M  V30 18 C -1.9662 0.10323 0.716452 0
M  V30 19 C -3.33688 -0.138326 0.353977 0
M  V30 20 C -3.85014 -1.3886 0.0925432 0
M  V30 21 C -5.22936 -1.58654 0.037973 0
M  V30 22 C -6.13023 -0.554319 0.199939 0
M  V30 23 C -5.64725 0.676909 0.43777 0
M  V30 24 C -4.26557 0.924323 0.542769 0
M  V30 25 C -3.71005 2.24516 0.685542 0
M  V30 26 O -3.26495 2.76706 1.71589 0
M  V30 27 O -3.66925 3.05734 -0.514712 0
M  V30 28 H 6.31329 3.69874 0.913102 0
M  V30 29 H 6.66572 2.77136 2.34126 0
M  V30 30 H 2.44513 -1.32984 -1.52075 0
M  V30 31 H 1.87705 0.407036 -1.5161 0
M  V30 32 H 5.70225 -0.774578 -2.29076 0
M  V30 33 H 4.54641 0.234602 -3.23602 0
M  V30 34 H 0.289369 -2.2157 1.10151 0
M  V30 35 H 1.98523 -2.63358 0.798629 0
M  V30 36 H -0.642223 -2.8148 -2.14345 0
M  V30 37 H -1.0071 -2.86794 -0.315145 0
M  V30 38 H -0.232844 -0.449071 -2.0667 0
M  V30 39 H -1.88977 -0.897023 -1.78907 0
M  V30 40 H 0.630432 1.3301 0.00966758 0
M  V30 41 H 0.123281 0.479645 1.5042 0
M  V30 42 H -1.77784 0.934947 1.4232 0
M  V30 43 H -1.73333 -0.81222 1.55602 0
M  V30 44 H -3.24607 -2.29374 -0.0147595 0
M  V30 45 H -5.6866 -2.54451 -0.237001 0
M  V30 46 H -7.23671 -0.673931 0.204582 0
M  V30 47 H -6.24078 1.59173 0.561105 0
M  V30 48 H -4.56237 3.0581 -1.01794 0
M  V30 END ATOM
M  V30 BEGIN BOND
M  V30 1 1 1 2
M  V30 2 2 2 3
M  V30 3 1 3 4
M  V30 4 1 4 5
M  V30 5 1 5 6
M  V30 6 1 6 7
M  V30 7 1 7 8
M  V30 8 1 8 9
M  V30 9 2 9 10
M  V30 10 1 9 11
M  V30 11 1 6 12
M  V30 12 1 12 13
M  V30 13 1 13 14
M  V30 14 1 14 15
M  V30 15 1 15 16
M  V30 16 1 16 17
M  V30 17 1 16 18
M  V30 18 1 18 19
M  V30 19 2 19 20
M  V30 20 1 20 21
M  V30 21 2 21 22
M  V30 22 1 22 23
M  V30 23 2 23 24
M  V30 24 1 24 25
M  V30 25 2 25 26
M  V30 26 1 25 27
M  V30 27 1 10 2
M  V30 28 1 24 19
M  V30 29 2 8 4
M  V30 30 1 17 6
M  V30 31 1 1 28
M  V30 32 1 1 29
M  V30 33 1 7 30
M  V30 34 1 7 31
M  V30 35 1 11 32
M  V30 36 1 11 33
M  V30 37 1 12 34
M  V30 38 1 12 35
M  V30 39 1 14 36
M  V30 40 1 14 37
M  V30 41 1 15 38
M  V30 42 1 15 39
M  V30 43 1 17 40
M  V30 44 1 17 41
M  V30 45 1 18 42
M  V30 46 1 18 43
M  V30 47 1 20 44
M  V30 48 1 21 45
M  V30 49 1 22 46
M  V30 50 1 23 47
M  V30 51 1 27 48
M  V30 END BOND
M  V30 END CTAB
M  END
