
     RDKit          3D

  0  0  0  0  0  0  0  0  0  0999 V3000
M  V30 BEGIN CTAB
M  V30 COUNTS 52 53 0 0 0
M  V30 BEGIN ATOM
M  V30 1 N -7.96928 1.0356 0.79075 0
M  V30 2 C -6.86011 0.380609 1.37421 0
M  V30 3 C -5.73838 0.340712 0.322634 0
M  V30 4 C -4.53259 -0.337975 0.869027 0
M  V30 5 C -3.36365 -0.51234 -0.00555522 0
M  V30 6 C -2.71351 0.734753 -0.564966 0 CFG=1
M  V30 7 C -1.54273 0.205215 -1.36616 0
M  V30 8 O -1.77707 -0.0287175 -2.58022 0
M  V30 9 N -0.27092 -0.00929347 -0.780245 0
M  V30 10 C 0.773513 -0.576809 -1.65719 0
M  V30 11 C 1.23616 -1.81619 -0.874395 0
M  V30 12 C 1.93473 -1.23073 0.361227 0
M  V30 13 C 0.911122 -0.611865 1.28215 0
M  V30 14 C -0.0178426 0.32572 0.571744 0
M  V30 15 O 2.74349 -0.186601 -0.121837 0
M  V30 16 C 4.09141 -0.0721633 -0.0751876 0
M  V30 17 C 4.6798 1.04878 -0.615832 0
M  V30 18 C 6.06443 1.20485 -0.58809 0
M  V30 19 C 6.85339 0.225764 -0.0128336 0
M  V30 20 C 6.2739 -0.897023 0.529481 0
M  V30 21 C 4.88301 -1.03728 0.492959 0
M  V30 22 C 8.31445 0.399875 0.0115148 0
M  V30 23 N -3.60671 1.34063 -1.55896 0
M  V30 24 H -8.58226 0.51777 0.205651 0
M  V30 25 H -7.77195 1.97438 0.458824 0
M  V30 26 H -6.55875 0.925583 2.26975 0
M  V30 27 H -7.08431 -0.659349 1.6489 0
M  V30 28 H -6.1714 -0.137356 -0.569135 0
M  V30 29 H -5.47425 1.3852 0.0425573 0
M  V30 30 H -4.23906 0.083571 1.87596 0
M  V30 31 H -4.87632 -1.38732 1.15243 0
M  V30 32 H -3.6536 -1.12402 -0.904061 0
M  V30 33 H -2.58858 -1.07753 0.548917 0
M  V30 34 H -2.42725 1.47357 0.172102 0
M  V30 35 H 1.59913 0.140873 -1.78242 0
M  V30 36 H 0.361426 -0.930967 -2.60038 0
M  V30 37 H 0.297359 -2.33141 -0.561385 0
M  V30 38 H 1.91462 -2.44074 -1.452 0
M  V30 39 H 2.45837 -2.05818 0.83602 0
M  V30 40 H 0.36793 -1.43893 1.78075 0
M  V30 41 H 1.46111 -0.0639532 2.07174 0
M  V30 42 H -0.941377 0.445021 1.14395 0
M  V30 43 H 0.454777 1.35608 0.576336 0
M  V30 44 H 4.06806 1.82997 -1.07342 0
M  V30 45 H 6.53383 2.0831 -1.01102 0
M  V30 46 H 6.88724 -1.67321 0.984559 0
M  V30 47 H 4.46181 -1.93009 0.927315 0
M  V30 48 H 8.56131 1.15074 0.816122 0
M  V30 49 H 8.62474 0.77153 -0.992531 0
M  V30 50 H 8.83062 -0.563325 0.201699 0
M  V30 51 H -3.72745 2.3501 -1.25282 0
M  V30 52 H -3.15238 1.40336 -2.49055 0
M  V30 END ATOM
M  V30 BEGIN BOND
M  V30 1 1 1 2
M  V30 2 1 2 3
M  V30 3 1 3 4
M  V30 4 1 4 5
M  V30 5 1 5 6
M  V30 6 1 6 7
M  V30 7 2 7 8
M  V30 8 1 7 9
M  V30 9 1 9 10
M  V30 10 1 10 11
M  V30 11 1 11 12
M  V30 12 1 12 13
M  V30 13 1 13 14
M  V30 14 1 12 15
M  V30 15 1 15 16
M  V30 16 2 16 17
M  V30 17 1 17 18
M  V30 18 2 18 19
M  V30 19 1 19 20
M  V30 20 2 20 21
M  V30 21 1 19 22
M  V30 22 1 6 23
M  V30 23 1 14 9
M  V30 24 1 21 16
M  V30 25 1 1 24
M  V30 26 1 1 25
M  V30 27 1 2 26
M  V30 28 1 2 27
M  V30 29 1 3 28
M  V30 30 1 3 29
M  V30 31 1 4 30
M  V30 32 1 4 31
M  V30 33 1 5 32
M  V30 34 1 5 33
M  V30 35 1 6 34 CFG=1
M  V30 36 1 10 35
M  V30 37 1 10 36
M  V30 38 1 11 37
M  V30 39 1 11 38
M  V30 40 1 12 39
M  V30 41 1 13 40
M  V30 42 1 13 41
M  V30 43 1 14 42
M  V30 44 1 14 43
M  V30 45 1 17 44
M  V30 46 1 18 45
M  V30 47 1 20 46
M  V30 48 1 21 47
M  V30 49 1 22 48
M  V30 50 1 22 49
M  V30 51 1 22 50
M  V30 52 1 23 51
M  V30 53 1 23 52
M  V30 END BOND
M  V30 END CTAB
M  END
