
     RDKit          3D

  0  0  0  0  0  0  0  0  0  0999 V3000
M  V30 BEGIN CTAB
M  V30 COUNTS 27 27 0 0 0
M  V30 BEGIN ATOM
M  V30 1 C 2.84941 0.702219 -0.629764 0
M  V30 2 C 2.26869 0.098632 0.658368 0
M  V30 3 C 0.860457 0.58959 0.828199 0
M  V30 4 N -0.0327981 0.251354 -0.224463 0
M  V30 5 C -0.388992 -1.11816 -0.354831 0
M  V30 6 C -1.89343 -1.20917 -0.528199 0
M  V30 7 C -2.38115 0.195181 -0.647843 0 CFG=2
M  V30 8 C -1.25195 1.00115 -0.0525427 0
M  V30 9 N -3.5745 0.421584 0.141924 0
M  V30 10 N 2.46479 -1.28229 0.606027 0
M  V30 11 H 2.02412 0.93129 -1.34602 0
M  V30 12 H 3.5676 0.011229 -1.08121 0
M  V30 13 H 3.38561 1.64242 -0.403834 0
M  V30 14 H 2.87597 0.533577 1.48525 0
M  V30 15 H 0.885393 1.70112 0.908489 0
M  V30 16 H 0.416754 0.219307 1.79536 0
M  V30 17 H 0.0651374 -1.64049 -1.21918 0
M  V30 18 H -0.0787229 -1.6621 0.5632 0
M  V30 19 H -2.19273 -1.8097 -1.40299 0
M  V30 20 H -2.37236 -1.67613 0.369889 0
M  V30 21 H -2.53886 0.516076 -1.69444 0
M  V30 22 H -1.44887 1.08331 1.03963 0
M  V30 23 H -1.19362 2.01221 -0.520863 0
M  V30 24 H -4.33132 0.886575 -0.416263 0
M  V30 25 H -3.38034 1.11284 0.934363 0
M  V30 26 H 2.3906 -1.75318 -0.301576 0
M  V30 27 H 3.00511 -1.75844 1.33287 0
M  V30 END ATOM
M  V30 BEGIN BOND
M  V30 1 1 1 2
M  V30 2 1 2 3
M  V30 3 1 3 4
M  V30 4 1 4 5
M  V30 5 1 5 6
M  V30 6 1 6 7
M  V30 7 1 7 8
M  V30 8 1 7 9
M  V30 9 1 2 10
M  V30 10 1 8 4
M  V30 11 1 1 11
M  V30 12 1 1 12
M  V30 13 1 1 13
M  V30 14 1 2 14
M  V30 15 1 3 15
M  V30 16 1 3 16
M  V30 17 1 5 17
M  V30 18 1 5 18
M  V30 19 1 6 19
M  V30 20 1 6 20
M  V30 21 1 7 21 CFG=3
M  V30 22 1 8 22
M  V30 23 1 8 23
M  V30 24 1 9 24
M  V30 25 1 9 25
M  V30 26 1 10 26
M  V30 27 1 10 27
M  V30 END BOND
M  V30 END CTAB
M  END
