
     RDKit          3D

  0  0  0  0  0  0  0  0  0  0999 V3000
M  V30 BEGIN CTAB
M  V30 COUNTS 24 24 0 0 0
M  V30 BEGIN ATOM
M  V30 1 N 3.61746 -1.50445 -0.761497 0
M  V30 2 N 2.31588 -0.96997 -0.9442 0
M  V30 3 C 1.49501 -0.8469 0.203293 0
M  V30 4 O 1.92031 -1.20931 1.36036 0
M  V30 5 C 0.149235 -0.323745 0.134557 0
M  V30 6 C -0.863174 -1.25018 0.0383051 0
M  V30 7 C -2.17639 -0.852537 -0.101937 0
M  V30 8 N -3.21306 -1.79994 -0.231345 0
M  V30 9 C -2.47331 0.50106 -0.142938 0
M  V30 10 C -1.46275 1.41925 -0.0452792 0
M  V30 11 C -0.138131 1.00785 0.0932386 0
M  V30 12 C 0.914321 2.06697 0.197971 0
M  V30 13 O 0.318876 3.32911 0.132903 0
M  V30 14 H 4.20461 -0.697661 -0.39574 0
M  V30 15 H 3.55795 -2.14608 0.0847631 0
M  V30 16 H 2.00719 -0.708635 -1.9045 0
M  V30 17 H -0.707023 -2.32716 0.0645901 0
M  V30 18 H -3.05441 -2.59751 -0.906687 0
M  V30 19 H -4.11432 -1.784 0.272732 0
M  V30 20 H -3.47774 0.837962 -0.248568 0
M  V30 21 H -1.68518 2.4728 -0.0587201 0
M  V30 22 H 1.58326 1.9039 -0.652968 0
M  V30 23 H 1.45065 2.02748 1.15213 0
M  V30 24 H -0.169258 3.45169 1.01019 0
M  V30 END ATOM
M  V30 BEGIN BOND
M  V30 1 1 1 2
M  V30 2 1 2 3
M  V30 3 2 3 4
M  V30 4 1 3 5
M  V30 5 2 5 6
M  V30 6 1 6 7
M  V30 7 1 7 8
M  V30 8 2 7 9
M  V30 9 1 9 10
M  V30 10 2 10 11
M  V30 11 1 11 12
M  V30 12 1 12 13
M  V30 13 1 11 5
M  V30 14 1 1 14
M  V30 15 1 1 15
M  V30 16 1 2 16
M  V30 17 1 6 17
M  V30 18 1 8 18
M  V30 19 1 8 19
M  V30 20 1 9 20
M  V30 21 1 10 21
M  V30 22 1 12 22
M  V30 23 1 12 23
M  V30 24 1 13 24
M  V30 END BOND
M  V30 END CTAB
M  END
