
     RDKit          3D

  0  0  0  0  0  0  0  0  0  0999 V3000
M  V30 BEGIN CTAB
M  V30 COUNTS 22 22 0 0 0
M  V30 BEGIN ATOM
M  V30 1 N -2.43592 0.328116 -0.802294 0
M  V30 2 C -1.61234 -0.68579 -0.162791 0
M  V30 3 C -0.361713 0.00170788 0.319534 0
M  V30 4 N -0.74125 1.02364 1.24844 0
M  V30 5 C 0.28673 0.655888 -0.879642 0
M  V30 6 C 1.65501 0.0235058 -0.957437 0
M  V30 7 C 1.94653 -0.21592 0.522825 0
M  V30 8 C 0.638477 -0.91184 0.931266 0
M  V30 9 H -2.57637 0.0887133 -1.81253 0
M  V30 10 H -2.04188 1.29161 -0.691666 0
M  V30 11 H -2.1731 -1.17032 0.669777 0
M  V30 12 H -1.39594 -1.50059 -0.889721 0
M  V30 13 H 0.106479 1.40662 1.71657 0
M  V30 14 H -1.39598 0.684849 1.99309 0
M  V30 15 H 0.319302 1.75278 -0.767106 0
M  V30 16 H -0.258867 0.438172 -1.82755 0
M  V30 17 H 1.53986 -0.96848 -1.42087 0
M  V30 18 H 2.38697 0.673359 -1.43023 0
M  V30 19 H 2.81684 -0.848744 0.682535 0
M  V30 20 H 2.01069 0.757036 1.04141 0
M  V30 21 H 0.688788 -1.91585 0.488591 0
M  V30 22 H 0.597669 -0.908439 2.02779 0
M  V30 END ATOM
M  V30 BEGIN BOND
M  V30 1 1 1 2
M  V30 2 1 2 3
M  V30 3 1 3 4
M  V30 4 1 3 5
M  V30 5 1 5 6
M  V30 6 1 6 7
M  V30 7 1 7 8
M  V30 8 1 8 3
M  V30 9 1 1 9
M  V30 10 1 1 10
M  V30 11 1 2 11
M  V30 12 1 2 12
M  V30 13 1 4 13
M  V30 14 1 4 14
M  V30 15 1 5 15
M  V30 16 1 5 16
M  V30 17 1 6 17
M  V30 18 1 6 18
M  V30 19 1 7 19
M  V30 20 1 7 20
M  V30 21 1 8 21
M  V30 22 1 8 22
M  V30 END BOND
M  V30 END CTAB
M  END
