
     RDKit          3D

  0  0  0  0  0  0  0  0  0  0999 V3000
M  V30 BEGIN CTAB
M  V30 COUNTS 30 31 0 0 0
M  V30 BEGIN ATOM
M  V30 1 N -1.14862 -2.66915 0.745571 0
M  V30 2 C -0.976544 -1.30585 0.332382 0
M  V30 3 C -2.04099 -0.470847 0.110524 0
M  V30 4 N -3.36328 -0.990233 0.301478 0
M  V30 5 C -1.87684 0.842398 -0.287448 0
M  V30 6 C -0.602101 1.31614 -0.463441 0
M  V30 7 C 0.469095 0.473781 -0.23956 0
M  V30 8 C 1.77324 0.9646 -0.421468 0
M  V30 9 C 2.86283 0.150474 -0.206543 0
M  V30 10 C 2.62745 -1.14981 0.189444 0
M  V30 11 C 1.3928 -1.68093 0.381577 0
M  V30 12 C 0.292289 -0.841836 0.159462 0
M  V30 13 S 4.46427 0.766232 -0.433818 0
M  V30 14 O 5.11191 1.44055 0.949167 0
M  V30 15 O 4.47728 1.7945 -1.53261 0
M  V30 16 O 5.36547 -0.382202 -0.831175 0
M  V30 17 S -3.30095 1.82728 -0.54463 0
M  V30 18 O -4.14627 1.88511 0.927911 0
M  V30 19 O -4.18546 1.17365 -1.55213 0
M  V30 20 O -2.93316 3.22549 -0.889247 0
M  V30 21 H -1.50808 -2.90855 1.67861 0
M  V30 22 H -0.889751 -3.4225 0.048818 0
M  V30 23 H -3.71678 -1.27617 1.23548 0
M  V30 24 H -3.99446 -1.0863 -0.518947 0
M  V30 25 H -0.429235 2.32213 -0.76956 0
M  V30 26 H 1.90735 1.98526 -0.730956 0
M  V30 27 H 3.48936 -1.77013 0.352355 0
M  V30 28 H 1.18371 -2.69736 0.691793 0
M  V30 29 H 4.50108 1.34094 1.73223 0
M  V30 30 H -4.8056 1.14333 0.982073 0
M  V30 END ATOM
M  V30 BEGIN BOND
M  V30 1 1 1 2
M  V30 2 2 2 3
M  V30 3 1 3 4
M  V30 4 1 3 5
M  V30 5 2 5 6
M  V30 6 1 6 7
M  V30 7 2 7 8
M  V30 8 1 8 9
M  V30 9 2 9 10
M  V30 10 1 10 11
M  V30 11 2 11 12
M  V30 12 1 9 13
M  V30 13 1 13 14
M  V30 14 2 13 15
M  V30 15 2 13 16
M  V30 16 1 5 17
M  V30 17 1 17 18
M  V30 18 2 17 19
M  V30 19 2 17 20
M  V30 20 1 12 2
M  V30 21 1 12 7
M  V30 22 1 1 21
M  V30 23 1 1 22
M  V30 24 1 4 23
M  V30 25 1 4 24
M  V30 26 1 6 25
M  V30 27 1 8 26
M  V30 28 1 10 27
M  V30 29 1 11 28
M  V30 30 1 14 29
M  V30 31 1 18 30
M  V30 END BOND
M  V30 END CTAB
M  END
