
     RDKit          3D

  0  0  0  0  0  0  0  0  0  0999 V3000
M  V30 BEGIN CTAB
M  V30 COUNTS 27 27 0 0 0
M  V30 BEGIN ATOM
M  V30 1 C -3.62902 0.593277 0.151195 0
M  V30 2 C -2.25921 0.0453017 0.0939065 0
M  V30 3 C -1.36006 0.326566 1.09763 0
M  V30 4 N -1.81314 1.15852 2.17382 0
M  V30 5 N -0.108418 -0.163363 1.06274 0
M  V30 6 C 0.35241 -0.953016 0.0604102 0
M  V30 7 N -0.551651 -1.22391 -0.929617 0
M  V30 8 C -1.80544 -0.755975 -0.931956 0
M  V30 9 O -2.60886 -1.02845 -1.86334 0
M  V30 10 C 1.70484 -1.51358 -0.0176724 0
M  V30 11 C 2.73597 -0.8074 -0.789667 0
M  V30 12 C 3.03978 0.573871 -0.319041 0
M  V30 13 N 1.90138 1.42591 -0.446518 0
M  V30 14 H -4.21689 0.111137 -0.653598 0
M  V30 15 H -4.12962 0.349886 1.12836 0
M  V30 16 H -3.67466 1.68882 0.00636394 0
M  V30 17 H -2.41013 0.731724 2.91222 0
M  V30 18 H -1.56957 2.17087 2.24658 0
M  V30 19 H -0.202092 -1.83288 -1.70637 0
M  V30 20 H 1.64069 -2.57224 -0.441833 0
M  V30 21 H 2.08234 -1.74695 1.03927 0
M  V30 22 H 2.34105 -0.685662 -1.84268 0
M  V30 23 H 3.66861 -1.42207 -0.916227 0
M  V30 24 H 3.93948 0.973275 -0.848301 0
M  V30 25 H 3.28897 0.564622 0.789642 0
M  V30 26 H 1.79595 2.11068 0.332667 0
M  V30 27 H 1.8473 1.88103 -1.38798 0
M  V30 END ATOM
M  V30 BEGIN BOND
M  V30 1 1 1 2
M  V30 2 2 2 3
M  V30 3 1 3 4
M  V30 4 1 3 5
M  V30 5 2 5 6
M  V30 6 1 6 7
M  V30 7 1 7 8
M  V30 8 2 8 9
M  V30 9 1 6 10
M  V30 10 1 10 11
M  V30 11 1 11 12
M  V30 12 1 12 13
M  V30 13 1 8 2
M  V30 14 1 1 14
M  V30 15 1 1 15
M  V30 16 1 1 16
M  V30 17 1 4 17
M  V30 18 1 4 18
M  V30 19 1 7 19
M  V30 20 1 10 20
M  V30 21 1 10 21
M  V30 22 1 11 22
M  V30 23 1 11 23
M  V30 24 1 12 24
M  V30 25 1 12 25
M  V30 26 1 13 26
M  V30 27 1 13 27
M  V30 END BOND
M  V30 END CTAB
M  END
