
     RDKit          3D

  0  0  0  0  0  0  0  0  0  0999 V3000
M  V30 BEGIN CTAB
M  V30 COUNTS 46 50 0 0 0
M  V30 BEGIN ATOM
M  V30 1 N -7.8385 -0.619703 1.69165 0
M  V30 2 C -6.67844 -0.51125 1.74744 0
M  V30 3 C -5.22171 -0.421124 1.84251 0
M  V30 4 C -4.67986 -0.662915 3.08418 0
M  V30 5 N -5.53266 -0.866925 4.191 0
M  V30 6 N -3.35037 -0.681859 3.13023 0
M  V30 7 C -2.59778 -0.473721 2.01808 0
M  V30 8 C -3.08305 -0.226333 0.757499 0
M  V30 9 C -4.49007 -0.201399 0.684611 0
M  V30 10 C -5.26371 0.145143 -0.496387 0
M  V30 11 C -6.33324 1.04446 -0.563012 0
M  V30 12 C -6.79255 1.09692 -1.87008 0
M  V30 13 C -5.9798 0.225568 -2.55167 0
M  V30 14 O -5.10173 -0.304496 -1.70325 0
M  V30 15 C -2.1731 -0.0349234 -0.210902 0
M  V30 16 N -2.41585 0.273198 -1.62354 0
M  V30 17 C -0.846693 -0.105904 0.141715 0
M  V30 18 S -0.90643 -0.434242 1.8069 0
M  V30 19 C 0.353009 0.0614005 -0.719166 0
M  V30 20 O 0.264981 0.302311 -1.94305 0
M  V30 21 N 1.60528 -0.0681943 -0.0722383 0
M  V30 22 C 2.79778 0.0754545 -0.819576 0
M  V30 23 S 3.07684 0.39912 -2.47123 0
M  V30 24 C 4.79109 0.387986 -2.44387 0
M  V30 25 C 5.03714 0.125782 -1.11389 0
M  V30 26 N 4.02133 -0.0230942 -0.338953 0
M  V30 27 C 6.42835 0.0190632 -0.595324 0
M  V30 28 C 7.48816 0.180846 -1.43838 0
M  V30 29 C 8.79415 0.0863767 -0.98064 0
M  V30 30 C 8.99931 -0.176345 0.353831 0
M  V30 31 C 7.92628 -0.341858 1.21612 0
M  V30 32 C 6.64557 -0.241631 0.728605 0
M  V30 33 H -6.21569 -1.64792 4.26719 0
M  V30 34 H -5.46653 -0.17719 4.98935 0
M  V30 35 H -6.69001 1.60716 0.256236 0
M  V30 36 H -7.61022 1.6936 -2.26121 0
M  V30 37 H -6.02732 -0.0073734 -3.60555 0
M  V30 38 H -2.30751 -0.452952 -2.35299 0
M  V30 39 H -2.69311 1.26047 -1.80969 0
M  V30 40 H 1.6586 -0.266441 0.935839 0
M  V30 41 H 5.51052 0.54756 -3.26814 0
M  V30 42 H 7.35609 0.392642 -2.51482 0
M  V30 43 H 9.63383 0.212675 -1.63901 0
M  V30 44 H 10 -0.259886 0.761383 0
M  V30 45 H 8.0986 -0.551952 2.28314 0
M  V30 46 H 5.80901 -0.378121 1.43878 0
M  V30 END ATOM
M  V30 BEGIN BOND
M  V30 1 3 1 2
M  V30 2 1 2 3
M  V30 3 2 3 4
M  V30 4 1 4 5
M  V30 5 1 4 6
M  V30 6 2 6 7
M  V30 7 1 7 8
M  V30 8 2 8 9
M  V30 9 1 9 10
M  V30 10 2 10 11
M  V30 11 1 11 12
M  V30 12 2 12 13
M  V30 13 1 13 14
M  V30 14 1 8 15
M  V30 15 1 15 16
M  V30 16 2 15 17
M  V30 17 1 17 18
M  V30 18 1 17 19
M  V30 19 2 19 20
M  V30 20 1 19 21
M  V30 21 1 21 22
M  V30 22 1 22 23
M  V30 23 1 23 24
M  V30 24 2 24 25
M  V30 25 1 25 26
M  V30 26 1 25 27
M  V30 27 2 27 28
M  V30 28 1 28 29
M  V30 29 2 29 30
M  V30 30 1 30 31
M  V30 31 2 31 32
M  V30 32 1 9 3
M  V30 33 1 14 10
M  V30 34 2 26 22
M  V30 35 1 32 27
M  V30 36 1 18 7
M  V30 37 1 5 33
M  V30 38 1 5 34
M  V30 39 1 11 35
M  V30 40 1 12 36
M  V30 41 1 13 37
M  V30 42 1 16 38
M  V30 43 1 16 39
M  V30 44 1 21 40
M  V30 45 1 24 41
M  V30 46 1 28 42
M  V30 47 1 29 43
M  V30 48 1 30 44
M  V30 49 1 31 45
M  V30 50 1 32 46
M  V30 END BOND
M  V30 END CTAB
M  END
