
     RDKit          3D

  0  0  0  0  0  0  0  0  0  0999 V3000
M  V30 BEGIN CTAB
M  V30 COUNTS 28 28 0 0 0
M  V30 BEGIN ATOM
M  V30 1 N 5.54977 1.63416 0.799363 0
M  V30 2 C 4.57382 0.617234 1.03974 0
M  V30 3 C 4.56443 -0.424911 -0.0744623 0
M  V30 4 S 3.28792 -1.65863 0.34693 0
M  V30 5 N 1.71767 -0.829905 0.264879 0
M  V30 6 N 0.748092 -1.54311 -0.137163 0
M  V30 7 C -0.565916 -0.996077 -0.247881 0
M  V30 8 C -1.37778 -1.40162 -1.28382 0
M  V30 9 C -2.651 -0.892433 -1.4124 0
M  V30 10 C -3.17445 0.0350305 -0.52764 0
M  V30 11 C -2.33279 0.41304 0.490749 0
M  V30 12 C -1.05983 -0.0765712 0.645039 0
M  V30 13 S -4.80159 0.670975 -0.714743 0
M  V30 14 O -5.13597 0.620596 -2.18621 0
M  V30 15 O -4.89428 2.10042 -0.263813 0
M  V30 16 N -5.9074 -0.336244 0.13268 0
M  V30 17 H 6.23961 1.74568 1.57236 0
M  V30 18 H 5.99506 1.58815 -0.137225 0
M  V30 19 H 3.57525 1.07496 1.07522 0
M  V30 20 H 4.8158 0.0381884 1.97002 0
M  V30 21 H 5.53171 -0.936136 -0.12212 0
M  V30 22 H 4.25741 0.0428271 -1.03184 0
M  V30 23 H -1.01236 -2.1294 -2.00725 0
M  V30 24 H -3.30148 -1.21361 -2.23655 0
M  V30 25 H -2.69693 1.1352 1.20718 0
M  V30 26 H -0.398365 0.234062 1.46392 0
M  V30 27 H -5.44825 -1.26412 0.284089 0
M  V30 28 H -6.09815 0.0626476 1.09094 0
M  V30 END ATOM
M  V30 BEGIN BOND
M  V30 1 1 1 2
M  V30 2 1 2 3
M  V30 3 1 3 4
M  V30 4 1 4 5
M  V30 5 2 5 6
M  V30 6 1 6 7
M  V30 7 2 7 8
M  V30 8 1 8 9
M  V30 9 2 9 10
M  V30 10 1 10 11
M  V30 11 2 11 12
M  V30 12 1 10 13
M  V30 13 2 13 14
M  V30 14 2 13 15
M  V30 15 1 13 16
M  V30 16 1 12 7
M  V30 17 1 1 17
M  V30 18 1 1 18
M  V30 19 1 2 19
M  V30 20 1 2 20
M  V30 21 1 3 21
M  V30 22 1 3 22
M  V30 23 1 8 23
M  V30 24 1 9 24
M  V30 25 1 11 25
M  V30 26 1 12 26
M  V30 27 1 16 27
M  V30 28 1 16 28
M  V30 END BOND
M  V30 END CTAB
M  END
