
     RDKit          3D

  0  0  0  0  0  0  0  0  0  0999 V3000
M  V30 BEGIN CTAB
M  V30 COUNTS 32 32 0 0 0
M  V30 BEGIN ATOM
M  V30 1 N -2.87529 -1.84837 0.830688 0
M  V30 2 C -2.81695 -1.19485 -0.398561 0
M  V30 3 C -1.37729 -0.862796 -0.789066 0
M  V30 4 N -0.793111 -0.00074747 0.219443 0
M  V30 5 C -1.44704 1.26816 0.176135 0
M  V30 6 C -0.764745 2.42017 0.793461 0
M  V30 7 N 0.60104 2.19645 1.16328 0
M  V30 8 C 1.18044 1.42176 0.0487067 0
M  V30 9 C 0.628068 0.0322848 0.209128 0 CFG=2
M  V30 10 C 1.31 -0.890348 -0.728316 0
M  V30 11 C 2.80841 -0.760874 -0.660612 0
M  V30 12 N 3.37402 -1.02997 0.618899 0
M  V30 13 H -3.27684 -2.7477 0.8659 0
M  V30 14 H -2.31378 -1.58263 1.59119 0
M  V30 15 H -3.47194 -0.304598 -0.483759 0
M  V30 16 H -3.16933 -1.90633 -1.19034 0
M  V30 17 H -0.884246 -1.85285 -0.870213 0
M  V30 18 H -1.42808 -0.344255 -1.77253 0
M  V30 19 H -1.73234 1.45828 -0.888301 0
M  V30 20 H -2.43893 1.13583 0.701641 0
M  V30 21 H -0.748423 3.26066 0.0381556 0
M  V30 22 H -1.28712 2.85744 1.67936 0
M  V30 23 H 1.1077 3.07344 1.29773 0
M  V30 24 H 0.865998 1.91459 -0.8821 0
M  V30 25 H 2.2573 1.48778 0.163792 0
M  V30 26 H 0.944333 -0.284865 1.25179 0
M  V30 27 H 1.00403 -0.658646 -1.78148 0
M  V30 28 H 1.10038 -1.96939 -0.55086 0
M  V30 29 H 3.19233 0.183426 -1.0612 0
M  V30 30 H 3.22525 -1.55242 -1.36047 0
M  V30 31 H 4.36833 -1.25635 0.533339 0
M  V30 32 H 2.85783 -1.6623 1.23516 0
M  V30 END ATOM
M  V30 BEGIN BOND
M  V30 1 1 1 2
M  V30 2 1 2 3
M  V30 3 1 3 4
M  V30 4 1 4 5
M  V30 5 1 5 6
M  V30 6 1 6 7
M  V30 7 1 7 8
M  V30 8 1 8 9
M  V30 9 1 9 10
M  V30 10 1 10 11
M  V30 11 1 11 12
M  V30 12 1 9 4
M  V30 13 1 1 13
M  V30 14 1 1 14
M  V30 15 1 2 15
M  V30 16 1 2 16
M  V30 17 1 3 17
M  V30 18 1 3 18
M  V30 19 1 5 19
M  V30 20 1 5 20
M  V30 21 1 6 21
M  V30 22 1 6 22
M  V30 23 1 7 23
M  V30 24 1 8 24
M  V30 25 1 8 25
M  V30 26 1 9 26 CFG=1
M  V30 27 1 10 27
M  V30 28 1 10 28
M  V30 29 1 11 29
M  V30 30 1 11 30
M  V30 31 1 12 31
M  V30 32 1 12 32
M  V30 END BOND
M  V30 END CTAB
M  END
