
     RDKit          3D

  0  0  0  0  0  0  0  0  0  0999 V3000
M  V30 BEGIN CTAB
M  V30 COUNTS 47 49 0 0 0
M  V30 BEGIN ATOM
M  V30 1 C 4.65282 2.18904 1.39252 0
M  V30 2 C 3.45898 1.37758 0.885741 0
M  V30 3 C 3.92406 0.0762614 0.349114 0
M  V30 4 N 5.25473 -0.231995 0.367096 0
M  V30 5 C 5.72114 -1.40454 -0.111541 0
M  V30 6 N 7.08937 -1.71311 -0.0893049 0
M  V30 7 N 4.8552 -2.2994 -0.622257 0
M  V30 8 C 3.53958 -2.01119 -0.647516 0
M  V30 9 N 2.63911 -2.97016 -1.19167 0
M  V30 10 C 3.0368 -0.826624 -0.167678 0
M  V30 11 C 1.59715 -0.511803 -0.192988 0
M  V30 12 C 1.05453 0.288705 -1.15399 0
M  V30 13 C -0.3135 0.60133 -1.2017 0
M  V30 14 C -1.13648 0.0784005 -0.241878 0
M  V30 15 N -2.5313 0.281657 -0.17659 0
M  V30 16 C -3.35527 -0.26815 0.876225 0
M  V30 17 C -4.76318 0.138459 0.632322 0
M  V30 18 C -5.29346 1.28367 1.18904 0
M  V30 19 C -6.59857 1.65621 0.960664 0
M  V30 20 C -7.4272 0.90515 0.170156 0
M  V30 21 F -8.71417 1.30981 -0.0298046 0
M  V30 22 C -6.90414 -0.236119 -0.386691 0
M  V30 23 C -5.60212 -0.627221 -0.171634 0
M  V30 24 C -0.570174 -0.729 0.722955 0
M  V30 25 C 0.755848 -1.03554 0.774979 0
M  V30 26 N -0.753417 1.43641 -2.2442 0 CHG=1
M  V30 27 O -0.124774 1.36188 -3.45308 0 CHG=-1
M  V30 28 O -1.65682 2.23646 -2.09146 0
M  V30 29 H 4.96116 1.7568 2.3536 0
M  V30 30 H 4.27554 3.22695 1.52404 0
M  V30 31 H 5.4352 2.12555 0.631391 0
M  V30 32 H 2.94616 1.97306 0.126838 0
M  V30 33 H 2.8222 1.18479 1.773 0
M  V30 34 H 7.5477 -1.95146 0.809339 0
M  V30 35 H 7.66006 -1.70927 -0.955122 0
M  V30 36 H 2.40655 -3.82335 -0.604873 0
M  V30 37 H 2.21085 -2.85245 -2.13991 0
M  V30 38 H 1.71066 0.710548 -1.92674 0
M  V30 39 H -3.04639 0.832911 -0.889256 0
M  V30 40 H -3.23001 -1.33749 1.03627 0
M  V30 41 H -3.07215 0.221513 1.8554 0
M  V30 42 H -4.69765 1.92868 1.82621 0
M  V30 43 H -6.97236 2.58197 1.43071 0
M  V30 44 H -7.56047 -0.835559 -1.01626 0
M  V30 45 H -5.20405 -1.54328 -0.627197 0
M  V30 46 H -1.1939 -1.17242 1.51731 0
M  V30 47 H 1.16618 -1.67364 1.54843 0
M  V30 END ATOM
M  V30 BEGIN BOND
M  V30 1 1 1 2
M  V30 2 1 2 3
M  V30 3 2 3 4
M  V30 4 1 4 5
M  V30 5 1 5 6
M  V30 6 2 5 7
M  V30 7 1 7 8
M  V30 8 1 8 9
M  V30 9 2 8 10
M  V30 10 1 10 11
M  V30 11 2 11 12
M  V30 12 1 12 13
M  V30 13 2 13 14
M  V30 14 1 14 15
M  V30 15 1 15 16
M  V30 16 1 16 17
M  V30 17 2 17 18
M  V30 18 1 18 19
M  V30 19 2 19 20
M  V30 20 1 20 21
M  V30 21 1 20 22
M  V30 22 2 22 23
M  V30 23 1 14 24
M  V30 24 2 24 25
M  V30 25 1 13 26
M  V30 26 1 26 27
M  V30 27 2 26 28
M  V30 28 1 10 3
M  V30 29 1 25 11
M  V30 30 1 23 17
M  V30 31 1 1 29
M  V30 32 1 1 30
M  V30 33 1 1 31
M  V30 34 1 2 32
M  V30 35 1 2 33
M  V30 36 1 6 34
M  V30 37 1 6 35
M  V30 38 1 9 36
M  V30 39 1 9 37
M  V30 40 1 12 38
M  V30 41 1 15 39
M  V30 42 1 16 40
M  V30 43 1 16 41
M  V30 44 1 18 42
M  V30 45 1 19 43
M  V30 46 1 22 44
M  V30 47 1 23 45
M  V30 48 1 24 46
M  V30 49 1 25 47
M  V30 END BOND
M  V30 END CTAB
M  END
