
     RDKit          3D

  0  0  0  0  0  0  0  0  0  0999 V3000
M  V30 BEGIN CTAB
M  V30 COUNTS 31 33 0 0 0
M  V30 BEGIN ATOM
M  V30 1 N -5.52192 0.140696 1.61532 0
M  V30 2 C -4.22079 0.0604177 1.03101 0
M  V30 3 C -4.0745 -0.282579 -0.286259 0
M  V30 4 C -2.79539 -0.346952 -0.806164 0
M  V30 5 C -1.66491 -0.0743367 -0.030805 0
M  V30 6 C -1.85771 0.265648 1.2853 0
M  V30 7 N -3.13617 0.320721 1.77022 0
M  V30 8 C -0.372929 -0.143109 -0.570034 0
M  V30 9 N 0.781234 0.129643 0.200705 0
M  V30 10 C 2.12573 0.106088 -0.180399 0
M  V30 11 C 2.56183 -0.204076 -1.43755 0
M  V30 12 C 3.95537 -0.188815 -1.68376 0
M  V30 13 C 4.86189 0.122328 -0.715252 0
M  V30 14 C 4.40118 0.430695 0.540524 0
M  V30 15 C 3.05905 0.427723 0.821588 0
M  V30 16 N 2.63076 0.756287 2.14594 0
M  V30 17 N -0.336961 -0.486265 -1.86391 0
M  V30 18 C -1.39225 -0.752986 -2.63356 0
M  V30 19 N -2.62376 -0.678809 -2.08725 0
M  V30 20 H -5.65183 0.112337 2.63488 0
M  V30 21 H -6.34415 0.228736 0.99866 0
M  V30 22 H -4.93924 -0.492852 -0.885857 0
M  V30 23 H -1.03624 0.485267 1.92936 0
M  V30 24 H 0.555478 0.387646 1.21674 0
M  V30 25 H 1.91435 -0.461481 -2.26108 0
M  V30 26 H 4.27742 -0.436984 -2.68378 0
M  V30 27 H 5.93462 0.120951 -0.953982 0
M  V30 28 H 5.15015 0.68014 1.31216 0
M  V30 29 H 2.95166 1.67202 2.52316 0
M  V30 30 H 2.03298 0.13968 2.72709 0
M  V30 31 H -1.22498 -1.02062 -3.67301 0
M  V30 END ATOM
M  V30 BEGIN BOND
M  V30 1 1 1 2
M  V30 2 2 2 3
M  V30 3 1 3 4
M  V30 4 2 4 5
M  V30 5 1 5 6
M  V30 6 2 6 7
M  V30 7 1 5 8
M  V30 8 1 8 9
M  V30 9 1 9 10
M  V30 10 2 10 11
M  V30 11 1 11 12
M  V30 12 2 12 13
M  V30 13 1 13 14
M  V30 14 2 14 15
M  V30 15 1 15 16
M  V30 16 2 8 17
M  V30 17 1 17 18
M  V30 18 2 18 19
M  V30 19 1 7 2
M  V30 20 1 15 10
M  V30 21 1 19 4
M  V30 22 1 1 20
M  V30 23 1 1 21
M  V30 24 1 3 22
M  V30 25 1 6 23
M  V30 26 1 9 24
M  V30 27 1 11 25
M  V30 28 1 12 26
M  V30 29 1 13 27
M  V30 30 1 14 28
M  V30 31 1 16 29
M  V30 32 1 16 30
M  V30 33 1 18 31
M  V30 END BOND
M  V30 END CTAB
M  END
