
     RDKit          3D

  0  0  0  0  0  0  0  0  0  0999 V3000
M  V30 BEGIN CTAB
M  V30 COUNTS 22 22 0 0 0
M  V30 BEGIN ATOM
M  V30 1 C 3.18775 0.930687 -0.284991 0
M  V30 2 C 2.22202 -0.174966 -0.116101 0
M  V30 3 O 2.68884 -1.33776 -0.0303181 0
M  V30 4 C 0.786844 0.0659473 -0.0509823 0
M  V30 5 C 0.287758 1.34571 -0.14594 0
M  V30 6 C -1.0893 1.58049 -0.0836911 0
M  V30 7 C -1.99382 0.553252 0.0734226 0
M  V30 8 C -1.48232 -0.723203 0.167287 0
M  V30 9 C -0.108299 -0.969026 0.106311 0
M  V30 10 N 0.392968 -2.29773 0.205937 0
M  V30 11 O -2.37809 -1.77226 0.325998 0
M  V30 12 N -3.40888 0.805766 0.136296 0
M  V30 13 H 3.27089 1.466 0.669189 0
M  V30 14 H 4.159 0.621362 -0.663265 0
M  V30 15 H 2.77451 1.6644 -1.02333 0
M  V30 16 H 0.954093 2.19069 -0.270291 0
M  V30 17 H -1.49331 2.58775 -0.157733 0
M  V30 18 H 0.409959 -2.83613 1.10101 0
M  V30 19 H 0.761045 -2.75418 -0.659363 0
M  V30 20 H -2.0867 -2.74029 0.403162 0
M  V30 21 H -3.9765 0.775129 -0.731614 0
M  V30 22 H -3.87846 1.01835 1.02901 0
M  V30 END ATOM
M  V30 BEGIN BOND
M  V30 1 1 1 2
M  V30 2 2 2 3
M  V30 3 1 2 4
M  V30 4 2 4 5
M  V30 5 1 5 6
M  V30 6 2 6 7
M  V30 7 1 7 8
M  V30 8 2 8 9
M  V30 9 1 9 10
M  V30 10 1 8 11
M  V30 11 1 7 12
M  V30 12 1 9 4
M  V30 13 1 1 13
M  V30 14 1 1 14
M  V30 15 1 1 15
M  V30 16 1 5 16
M  V30 17 1 6 17
M  V30 18 1 10 18
M  V30 19 1 10 19
M  V30 20 1 11 20
M  V30 21 1 12 21
M  V30 22 1 12 22
M  V30 END BOND
M  V30 END CTAB
M  END
