
     RDKit          3D

  0  0  0  0  0  0  0  0  0  0999 V3000
M  V30 BEGIN CTAB
M  V30 COUNTS 23 22 0 0 0
M  V30 BEGIN ATOM
M  V30 1 N 2.63636 0.89615 -0.248264 0
M  V30 2 C 2.26478 -0.451011 -0.313187 0
M  V30 3 C 0.871126 -0.770982 0.156384 0 CFG=2
M  V30 4 C -0.183689 -0.0613995 -0.629242 0
M  V30 5 N -1.5046 -0.369565 -0.181288 0
M  V30 6 C -1.87674 0.111178 1.10496 0
M  V30 7 C -2.46561 0.198442 -1.13569 0
M  V30 8 N 0.809323 -0.447079 1.56006 0
M  V30 9 H 1.98563 1.62244 -0.307531 0
M  V30 10 H 3.47616 1.0716 -0.812253 0
M  V30 11 H 2.40758 -0.808357 -1.35984 0
M  V30 12 H 2.99847 -1.04326 0.300272 0
M  V30 13 H 0.704558 -1.86106 0.0318121 0
M  V30 14 H 0.00705158 1.02696 -0.730055 0
M  V30 15 H -0.11718 -0.453451 -1.68756 0
M  V30 16 H -2.98452 0.298502 1.09813 0
M  V30 17 H -1.74414 -0.63235 1.92138 0
M  V30 18 H -1.43553 1.10528 1.37366 0
M  V30 19 H -2.49425 -0.374371 -2.06396 0
M  V30 20 H -3.47351 0.184294 -0.622586 0
M  V30 21 H -2.24426 1.26807 -1.31826 0
M  V30 22 H 1.36805 -1.06796 2.15681 0
M  V30 23 H 0.994923 0.55792 1.70624 0
M  V30 END ATOM
M  V30 BEGIN BOND
M  V30 1 1 1 2
M  V30 2 1 2 3
M  V30 3 1 3 4
M  V30 4 1 4 5
M  V30 5 1 5 6
M  V30 6 1 5 7
M  V30 7 1 3 8
M  V30 8 1 1 9
M  V30 9 1 1 10
M  V30 10 1 2 11
M  V30 11 1 2 12
M  V30 12 1 3 13 CFG=1
M  V30 13 1 4 14
M  V30 14 1 4 15
M  V30 15 1 6 16
M  V30 16 1 6 17
M  V30 17 1 6 18
M  V30 18 1 7 19
M  V30 19 1 7 20
M  V30 20 1 7 21
M  V30 21 1 8 22
M  V30 22 1 8 23
M  V30 END BOND
M  V30 END CTAB
M  END
