
     RDKit          3D

  0  0  0  0  0  0  0  0  0  0999 V3000
M  V30 BEGIN CTAB
M  V30 COUNTS 48 49 0 0 0
M  V30 BEGIN ATOM
M  V30 1 N -1.00247 3.19897 1.53294 0
M  V30 2 C -1.26989 1.72402 1.50937 0
M  V30 3 C -0.000373201 1.12117 1.90545 0
M  V30 4 O 1.04343 1.84514 2.06925 0
M  V30 5 N 0.193427 -0.274424 2.14289 0
M  V30 6 C 1.44517 -0.833773 2.54036 0
M  V30 7 C 2.39504 -0.929641 1.42738 0
M  V30 8 C 3.70201 -1.37914 1.66065 0
M  V30 9 C 4.63687 -1.49262 0.664907 0
M  V30 10 C 4.25817 -1.14759 -0.603564 0
M  V30 11 C 2.9916 -0.705414 -0.866412 0
M  V30 12 C 2.0426 -0.592222 0.156043 0
M  V30 13 S 5.38365 -1.25454 -1.96633 0
M  V30 14 O 6.40162 -2.32695 -1.69994 0
M  V30 15 O 4.57259 -1.55354 -3.19278 0
M  V30 16 N 6.17275 0.27905 -2.0691 0
M  V30 17 C -1.74582 1.47155 0.129529 0
M  V30 18 C -2.14255 0.100772 -0.25046 0
M  V30 19 C -3.27945 -0.453502 0.572953 0
M  V30 20 C -4.62194 0.115815 0.177455 0
M  V30 21 C -4.87524 -0.039069 -1.30865 0
M  V30 22 C -3.70155 -0.764423 -1.97534 0
M  V30 23 C -2.49009 0.122346 -1.73165 0
M  V30 24 H -0.196766 3.31378 0.884028 0
M  V30 25 H -1.86772 3.61125 1.11438 0
M  V30 26 H -2.01104 1.56527 2.29773 0
M  V30 27 H -0.597067 -0.975954 2.04487 0
M  V30 28 H 1.92779 -0.264334 3.37027 0
M  V30 29 H 1.31813 -1.8697 2.97807 0
M  V30 30 H 3.97826 -1.64609 2.67029 0
M  V30 31 H 5.65052 -1.83938 0.83468 0
M  V30 32 H 2.64697 -0.421029 -1.8551 0
M  V30 33 H 1.03316 -0.233882 -0.0926355 0
M  V30 34 H 5.41152 0.98889 -2.23417 0
M  V30 35 H 6.63075 0.449475 -1.15035 0
M  V30 36 H -2.57811 2.17297 -0.141627 0
M  V30 37 H -0.906426 1.77415 -0.566008 0
M  V30 38 H -1.28859 -0.588142 -0.158096 0
M  V30 39 H -3.1197 -0.217861 1.63784 0
M  V30 40 H -3.34124 -1.55756 0.48675 0
M  V30 41 H -4.76437 1.16054 0.517291 0
M  V30 42 H -5.39543 -0.491255 0.693187 0
M  V30 43 H -4.86559 0.987914 -1.73118 0
M  V30 44 H -5.83456 -0.498941 -1.54802 0
M  V30 45 H -3.58644 -1.75247 -1.52859 0
M  V30 46 H -3.93727 -0.781845 -3.05304 0
M  V30 47 H -1.66115 -0.272123 -2.35623 0
M  V30 48 H -2.7552 1.15435 -2.03003 0
M  V30 END ATOM
M  V30 BEGIN BOND
M  V30 1 1 1 2
M  V30 2 1 2 3
M  V30 3 2 3 4
M  V30 4 1 3 5
M  V30 5 1 5 6
M  V30 6 1 6 7
M  V30 7 2 7 8
M  V30 8 1 8 9
M  V30 9 2 9 10
M  V30 10 1 10 11
M  V30 11 2 11 12
M  V30 12 1 10 13
M  V30 13 2 13 14
M  V30 14 2 13 15
M  V30 15 1 13 16
M  V30 16 1 2 17
M  V30 17 1 17 18
M  V30 18 1 18 19
M  V30 19 1 19 20
M  V30 20 1 20 21
M  V30 21 1 21 22
M  V30 22 1 22 23
M  V30 23 1 12 7
M  V30 24 1 23 18
M  V30 25 1 1 24
M  V30 26 1 1 25
M  V30 27 1 2 26
M  V30 28 1 5 27
M  V30 29 1 6 28
M  V30 30 1 6 29
M  V30 31 1 8 30
M  V30 32 1 9 31
M  V30 33 1 11 32
M  V30 34 1 12 33
M  V30 35 1 16 34
M  V30 36 1 16 35
M  V30 37 1 17 36
M  V30 38 1 17 37
M  V30 39 1 18 38
M  V30 40 1 19 39
M  V30 41 1 19 40
M  V30 42 1 20 41
M  V30 43 1 20 42
M  V30 44 1 21 43
M  V30 45 1 21 44
M  V30 46 1 22 45
M  V30 47 1 22 46
M  V30 48 1 23 47
M  V30 49 1 23 48
M  V30 END BOND
M  V30 END CTAB
M  END
