
     RDKit          3D

  0  0  0  0  0  0  0  0  0  0999 V3000
M  V30 BEGIN CTAB
M  V30 COUNTS 41 44 0 0 0
M  V30 BEGIN ATOM
M  V30 1 N 5.25698 1.29033 -1.77427 0
M  V30 2 C 5.02009 1.26005 -0.368903 0
M  V30 3 C 3.79247 0.560305 0.0138884 0
M  V30 4 C 3.46251 0.469954 1.35822 0
M  V30 5 C 2.33334 -0.172694 1.74856 0
M  V30 6 C 1.53023 -0.730763 0.765812 0
M  V30 7 N 0.359622 -1.36086 1.1611 0
M  V30 8 C 0.0501345 -2.58871 0.304675 0
M  V30 9 N -0.255164 -1.52628 -0.752043 0
M  V30 10 C 0.795491 -1.21782 -1.618 0
M  V30 11 C 1.85435 -0.642441 -0.622636 0
M  V30 12 C 2.97463 -0.00446517 -0.984949 0
M  V30 13 C -1.40654 -0.816901 -0.478499 0
M  V30 14 C -2.20885 -0.426349 -1.54972 0
M  V30 15 C -3.3238 0.292749 -1.28692 0
M  V30 16 C -3.65968 0.634316 0.0220394 0
M  V30 17 C -4.87961 1.42162 0.332358 0
M  V30 18 N -5.59948 1.75331 -0.853213 0
M  V30 19 C -2.83769 0.234737 1.09204 0
M  V30 20 C -1.73627 -0.470705 0.86596 0
M  V30 21 C -0.690219 -0.880744 1.95211 0
M  V30 22 H 5.72315 0.452124 -2.15594 0
M  V30 23 H 4.48692 1.65844 -2.34201 0
M  V30 24 H 4.90297 2.33084 -0.0317925 0
M  V30 25 H 5.92826 0.866291 0.133018 0
M  V30 26 H 4.10212 0.915587 2.13003 0
M  V30 27 H 1.94017 -0.285003 2.76593 0
M  V30 28 H -0.834859 -3.0303 0.688535 0
M  V30 29 H 0.918952 -3.13979 0.0509657 0
M  V30 30 H 1.31179 -2.07931 -2.08525 0
M  V30 31 H 0.686613 -0.422452 -2.33079 0
M  V30 32 H 3.22194 0.0605301 -2.03577 0
M  V30 33 H -1.81468 -0.73069 -2.52391 0
M  V30 34 H -3.96001 0.605352 -2.12742 0
M  V30 35 H -4.65539 2.32309 0.933543 0
M  V30 36 H -5.53483 0.775273 0.96373 0
M  V30 37 H -5.99744 2.72368 -0.855085 0
M  V30 38 H -6.37129 1.04916 -1.03837 0
M  V30 39 H -3.11684 0.511578 2.10183 0
M  V30 40 H -0.561107 0.0326971 2.50454 0
M  V30 41 H -1.20898 -1.69573 2.50205 0
M  V30 END ATOM
M  V30 BEGIN BOND
M  V30 1 1 1 2
M  V30 2 1 2 3
M  V30 3 2 3 4
M  V30 4 1 4 5
M  V30 5 2 5 6
M  V30 6 1 6 7
M  V30 7 1 7 8
M  V30 8 1 8 9
M  V30 9 1 9 10
M  V30 10 1 10 11
M  V30 11 2 11 12
M  V30 12 1 9 13
M  V30 13 2 13 14
M  V30 14 1 14 15
M  V30 15 2 15 16
M  V30 16 1 16 17
M  V30 17 1 17 18
M  V30 18 1 16 19
M  V30 19 2 19 20
M  V30 20 1 20 21
M  V30 21 1 12 3
M  V30 22 1 20 13
M  V30 23 1 11 6
M  V30 24 1 21 7
M  V30 25 1 1 22
M  V30 26 1 1 23
M  V30 27 1 2 24
M  V30 28 1 2 25
M  V30 29 1 4 26
M  V30 30 1 5 27
M  V30 31 1 8 28
M  V30 32 1 8 29
M  V30 33 1 10 30
M  V30 34 1 10 31
M  V30 35 1 12 32
M  V30 36 1 14 33
M  V30 37 1 15 34
M  V30 38 1 17 35
M  V30 39 1 17 36
M  V30 40 1 18 37
M  V30 41 1 18 38
M  V30 42 1 19 39
M  V30 43 1 21 40
M  V30 44 1 21 41
M  V30 END BOND
M  V30 END CTAB
M  END
