
     RDKit          3D

  0  0  0  0  0  0  0  0  0  0999 V3000
M  V30 BEGIN CTAB
M  V30 COUNTS 36 37 0 0 0
M  V30 BEGIN ATOM
M  V30 1 N -6.01271 0.972231 -0.925132 0
M  V30 2 C -6.50306 0.483851 0.301125 0
M  V30 3 N -5.75233 0.247621 1.32166 0
M  V30 4 N -4.37571 0.478775 1.23642 0
M  V30 5 C -3.59054 -0.411421 0.735735 0
M  V30 6 C -2.14571 -0.206442 0.629631 0
M  V30 7 C -1.53798 0.951933 1.05927 0
M  V30 8 C -0.154664 1.09678 0.934925 0
M  V30 9 C 0.623495 0.0991067 0.387613 0
M  V30 10 C 0.0169985 -1.06074 -0.0428403 0
M  V30 11 C -1.3558 -1.19063 0.0866843 0
M  V30 12 O 1.98705 0.237773 0.263228 0
M  V30 13 C 2.80893 -0.768311 -0.293766 0
M  V30 14 C 4.22632 -0.392674 -0.320663 0
M  V30 15 C 4.64555 0.838966 0.167162 0
M  V30 16 C 5.97213 1.19743 0.145031 0
M  V30 17 C 6.88666 0.296259 -0.378292 0
M  V30 18 C 6.4964 -0.933024 -0.869018 0
M  V30 19 C 5.16573 -1.23925 -0.823217 0
M  V30 20 Cl 8.57693 0.734558 -0.414653 0
M  V30 21 N -7.88983 0.235713 0.432017 0
M  V30 22 H -5.56863 0.405686 -1.66931 0
M  V30 23 H -6.09314 2.00434 -1.12794 0
M  V30 24 H -4.05281 -1.32631 0.394019 0
M  V30 25 H -2.11981 1.75133 1.49213 0
M  V30 26 H 0.290524 2.03423 1.28897 0
M  V30 27 H 0.653382 -1.82358 -0.466969 0
M  V30 28 H -1.79969 -2.09614 -0.253413 0
M  V30 29 H 2.45976 -1.03535 -1.30628 0
M  V30 30 H 2.63847 -1.68791 0.336547 0
M  V30 31 H 3.88644 1.49617 0.561357 0
M  V30 32 H 6.32025 2.14909 0.518661 0
M  V30 33 H 7.24875 -1.60453 -1.26863 0
M  V30 34 H 4.85248 -2.20084 -1.20599 0
M  V30 35 H -8.56509 0.993004 0.646871 0
M  V30 36 H -8.23875 -0.727695 0.309898 0
M  V30 END ATOM
M  V30 BEGIN BOND
M  V30 1 1 1 2
M  V30 2 2 2 3
M  V30 3 1 3 4
M  V30 4 2 4 5
M  V30 5 1 5 6
M  V30 6 2 6 7
M  V30 7 1 7 8
M  V30 8 2 8 9
M  V30 9 1 9 10
M  V30 10 2 10 11
M  V30 11 1 9 12
M  V30 12 1 12 13
M  V30 13 1 13 14
M  V30 14 2 14 15
M  V30 15 1 15 16
M  V30 16 2 16 17
M  V30 17 1 17 18
M  V30 18 2 18 19
M  V30 19 1 17 20
M  V30 20 1 2 21
M  V30 21 1 11 6
M  V30 22 1 19 14
M  V30 23 1 1 22
M  V30 24 1 1 23
M  V30 25 1 5 24
M  V30 26 1 7 25
M  V30 27 1 8 26
M  V30 28 1 10 27
M  V30 29 1 11 28
M  V30 30 1 13 29
M  V30 31 1 13 30
M  V30 32 1 15 31
M  V30 33 1 16 32
M  V30 34 1 18 33
M  V30 35 1 19 34
M  V30 36 1 21 35
M  V30 37 1 21 36
M  V30 END BOND
M  V30 END CTAB
M  END
