
     RDKit          3D

  0  0  0  0  0  0  0  0  0  0999 V3000
M  V30 BEGIN CTAB
M  V30 COUNTS 42 43 0 0 0
M  V30 BEGIN ATOM
M  V30 1 C -0.35452 -3.3964 0.274848 0
M  V30 2 O -0.637572 -1.99564 0.333097 0
M  V30 3 C 0.377053 -1.09285 0.189326 0
M  V30 4 C 1.6852 -1.52175 -0.0145651 0
M  V30 5 C 2.69125 -0.587052 -0.157006 0
M  V30 6 C 4.09173 -0.977896 -0.376091 0
M  V30 7 N 5.02532 -0.114717 -0.509573 0
M  V30 8 N 6.35556 -0.399075 -0.716682 0
M  V30 9 C 6.98319 -1.24304 -0.0151527 0
M  V30 10 N 8.37167 -1.43285 -0.352999 0
M  V30 11 N 6.46062 -2.01253 1.05918 0
M  V30 12 C 2.40802 0.764263 -0.0984932 0
M  V30 13 C 1.10354 1.1565 0.104428 0
M  V30 14 C 0.0663724 0.264282 0.252039 0
M  V30 15 O -1.24143 0.701265 0.455314 0
M  V30 16 C -2.11108 0.953167 -0.595904 0
M  V30 17 O -1.66922 0.770944 -1.75315 0
M  V30 18 C -3.47556 1.40726 -0.413578 0
M  V30 19 C -4.04605 1.63297 0.81918 0
M  V30 20 C -5.35026 2.06712 0.96264 0
M  V30 21 C -6.12245 2.28786 -0.151071 0
M  V30 22 C -5.58212 2.07143 -1.40318 0
M  V30 23 C -4.25742 1.63108 -1.52211 0
M  V30 24 C -7.53888 2.75689 -0.0683314 0
M  V30 25 H -1.27989 -3.98363 0.447003 0
M  V30 26 H 0.0681278 -3.69757 -0.690246 0
M  V30 27 H 0.370538 -3.59382 1.11355 0
M  V30 28 H 1.93977 -2.57179 -0.0650289 0
M  V30 29 H 4.32925 -2.02896 -0.427166 0
M  V30 30 H 9.0073 -0.602288 -0.288785 0
M  V30 31 H 8.71214 -2.37078 -0.648562 0
M  V30 32 H 6.11786 -2.98057 0.822117 0
M  V30 33 H 6.41405 -1.65913 2.03384 0
M  V30 34 H 3.22438 1.46086 -0.21518 0
M  V30 35 H 0.894336 2.2092 0.14794 0
M  V30 36 H -3.45974 1.46697 1.71463 0
M  V30 37 H -5.82116 2.25075 1.91911 0
M  V30 38 H -6.18517 2.24332 -2.28669 0
M  V30 39 H -3.91205 1.486 -2.5352 0
M  V30 40 H -7.56709 3.87073 -0.0730806 0
M  V30 41 H -7.97847 2.43888 0.905251 0
M  V30 42 H -8.10714 2.37058 -0.933689 0
M  V30 END ATOM
M  V30 BEGIN BOND
M  V30 1 1 1 2
M  V30 2 1 2 3
M  V30 3 2 3 4
M  V30 4 1 4 5
M  V30 5 1 5 6
M  V30 6 2 6 7
M  V30 7 1 7 8
M  V30 8 2 8 9
M  V30 9 1 9 10
M  V30 10 1 9 11
M  V30 11 2 5 12
M  V30 12 1 12 13
M  V30 13 2 13 14
M  V30 14 1 14 15
M  V30 15 1 15 16
M  V30 16 2 16 17
M  V30 17 1 16 18
M  V30 18 2 18 19
M  V30 19 1 19 20
M  V30 20 2 20 21
M  V30 21 1 21 22
M  V30 22 2 22 23
M  V30 23 1 21 24
M  V30 24 1 14 3
M  V30 25 1 23 18
M  V30 26 1 1 25
M  V30 27 1 1 26
M  V30 28 1 1 27
M  V30 29 1 4 28
M  V30 30 1 6 29
M  V30 31 1 10 30
M  V30 32 1 10 31
M  V30 33 1 11 32
M  V30 34 1 11 33
M  V30 35 1 12 34
M  V30 36 1 13 35
M  V30 37 1 19 36
M  V30 38 1 20 37
M  V30 39 1 22 38
M  V30 40 1 23 39
M  V30 41 1 24 40
M  V30 42 1 24 41
M  V30 43 1 24 42
M  V30 END BOND
M  V30 END CTAB
M  END
