
     RDKit          3D

  0  0  0  0  0  0  0  0  0  0999 V3000
M  V30 BEGIN CTAB
M  V30 COUNTS 14 13 0 0 0
M  V30 BEGIN ATOM
M  V30 1 N 0.193827 1.85823 0.0811406 0
M  V30 2 C 0.475863 0.465145 0.0919307 0
M  V30 3 C -0.460199 -0.447686 -0.0793443 0
M  V30 4 N -1.8136 -0.0708843 -0.285457 0 CHG=1
M  V30 5 O -2.51957 0.221653 0.705852 0
M  V30 6 O -2.38915 -0.0131161 -1.54635 0 CHG=-1
M  V30 7 N -0.188033 -1.84553 -0.0702807 0
M  V30 8 N 1.81249 0.038537 0.294189 0 CHG=1
M  V30 9 O 2.18255 -0.238915 1.43571 0
M  V30 10 O 2.72213 -0.0820667 -0.724215 0 CHG=-1
M  V30 11 H -0.693624 2.27694 0.435955 0
M  V30 12 H 0.889432 2.54642 -0.296615 0
M  V30 13 H -0.422464 -2.35327 0.82471 0
M  V30 14 H 0.210351 -2.35546 -0.86723 0
M  V30 END ATOM
M  V30 BEGIN BOND
M  V30 1 1 1 2
M  V30 2 2 2 3
M  V30 3 1 3 4
M  V30 4 2 4 5
M  V30 5 1 4 6
M  V30 6 1 3 7
M  V30 7 1 2 8
M  V30 8 2 8 9
M  V30 9 1 8 10
M  V30 10 1 1 11
M  V30 11 1 1 12
M  V30 12 1 7 13
M  V30 13 1 7 14
M  V30 END BOND
M  V30 END CTAB
M  END
