
     RDKit          3D

  0  0  0  0  0  0  0  0  0  0999 V3000
M  V30 BEGIN CTAB
M  V30 COUNTS 60 61 0 0 0
M  V30 BEGIN ATOM
M  V30 1 C -4.87873 0.269351 -1.98558 0
M  V30 2 C -4.62844 0.0365525 -0.525758 0
M  V30 3 C -3.14853 0.0169979 -0.183437 0
M  V30 4 C -2.4907 -1.2325 -0.354304 0
M  V30 5 C -3.38717 -2.35269 -0.641438 0
M  V30 6 N -2.97819 -3.67842 -0.852126 0
M  V30 7 C -1.17535 -1.28161 -0.0678414 0
M  V30 8 C -0.446788 -2.546 -0.272658 0
M  V30 9 C -0.185857 -2.85303 -1.75594 0
M  V30 10 C -0.471488 -0.0856491 0.419575 0
M  V30 11 C 0.953012 -0.331301 0.58208 0
M  V30 12 N 1.89693 0.641172 0.945985 0
M  V30 13 C 3.30521 0.569593 0.502729 0
M  V30 14 N 4.13601 1.60609 0.707259 0
M  V30 15 C 5.44934 1.58171 0.341059 0
M  V30 16 C 6.3698 2.70631 0.486073 0
M  V30 17 C 5.91836 0.418434 -0.250776 0
M  V30 18 C 5.08686 -0.59911 -0.456313 0
M  V30 19 C 5.60582 -1.82234 -1.11763 0
M  V30 20 C 3.73181 -0.590309 -0.0943036 0
M  V30 21 C -1.15991 1.07704 0.581941 0
M  V30 22 C -0.629892 2.30099 1.2091 0
M  V30 23 C -0.848627 2.04167 2.71563 0
M  V30 24 C -2.51381 1.14432 0.274119 0
M  V30 25 C -3.35278 2.34581 0.25766 0
M  V30 26 N -3.57401 2.97849 1.53674 0
M  V30 27 H -5.76584 -0.256594 -2.35131 0
M  V30 28 H -3.99161 -0.00834492 -2.62483 0
M  V30 29 H -5.0749 1.35585 -2.24926 0
M  V30 30 H -5.14455 0.804978 0.0633813 0
M  V30 31 H -5.1034 -0.911362 -0.1774 0
M  V30 32 H -4.02633 -2.46224 0.336769 0
M  V30 33 H -4.20318 -2.09949 -1.38609 0
M  V30 34 H -3.54098 -4.17449 -1.61745 0
M  V30 35 H -2.99365 -4.28973 0.0187113 0
M  V30 36 H -0.847569 -3.41649 0.233772 0
M  V30 37 H 0.589057 -2.46746 0.150574 0
M  V30 38 H -0.0634175 -3.93641 -1.84584 0
M  V30 39 H 0.810478 -2.39888 -2.10266 0
M  V30 40 H -0.92225 -2.419 -2.42838 0
M  V30 41 H 1.00352 -1.19526 1.34763 0
M  V30 42 H 1.33681 -0.903888 -0.356266 0
M  V30 43 H 1.79474 1.4559 1.58285 0
M  V30 44 H 7.35904 2.3644 0.945893 0
M  V30 45 H 6.70106 3.16487 -0.469591 0
M  V30 46 H 5.94816 3.52254 1.10682 0
M  V30 47 H 6.97752 0.432934 -0.531377 0
M  V30 48 H 4.77713 -2.32112 -1.69536 0
M  V30 49 H 5.96476 -2.53021 -0.36312 0
M  V30 50 H 6.4061 -1.61432 -1.8295 0
M  V30 51 H 3.17624 -1.44252 -0.331934 0
M  V30 52 H -1.20655 3.21252 0.859885 0
M  V30 53 H 0.382615 2.59457 1.02039 0
M  V30 54 H -1.15011 2.90363 3.28775 0
M  V30 55 H 0.0828589 1.61816 3.17438 0
M  V30 56 H -1.57996 1.22453 2.87933 0
M  V30 57 H -2.73106 3.20754 -0.268272 0
M  V30 58 H -4.2254 2.32257 -0.383346 0
M  V30 59 H -3.286 3.89584 1.76001 0
M  V30 60 H -4.03619 2.40542 2.24201 0
M  V30 END ATOM
M  V30 BEGIN BOND
M  V30 1 1 1 2
M  V30 2 1 2 3
M  V30 3 2 3 4
M  V30 4 1 4 5
M  V30 5 1 5 6
M  V30 6 1 4 7
M  V30 7 1 7 8
M  V30 8 1 8 9
M  V30 9 2 7 10
M  V30 10 1 10 11
M  V30 11 1 11 12
M  V30 12 1 12 13
M  V30 13 2 13 14
M  V30 14 1 14 15
M  V30 15 1 15 16
M  V30 16 2 15 17
M  V30 17 1 17 18
M  V30 18 1 18 19
M  V30 19 2 18 20
M  V30 20 1 10 21
M  V30 21 1 21 22
M  V30 22 1 22 23
M  V30 23 2 21 24
M  V30 24 1 24 25
M  V30 25 1 25 26
M  V30 26 1 24 3
M  V30 27 1 20 13
M  V30 28 1 1 27
M  V30 29 1 1 28
M  V30 30 1 1 29
M  V30 31 1 2 30
M  V30 32 1 2 31
M  V30 33 1 5 32
M  V30 34 1 5 33
M  V30 35 1 6 34
M  V30 36 1 6 35
M  V30 37 1 8 36
M  V30 38 1 8 37
M  V30 39 1 9 38
M  V30 40 1 9 39
M  V30 41 1 9 40
M  V30 42 1 11 41
M  V30 43 1 11 42
M  V30 44 1 12 43
M  V30 45 1 16 44
M  V30 46 1 16 45
M  V30 47 1 16 46
M  V30 48 1 17 47
M  V30 49 1 19 48
M  V30 50 1 19 49
M  V30 51 1 19 50
M  V30 52 1 20 51
M  V30 53 1 22 52
M  V30 54 1 22 53
M  V30 55 1 23 54
M  V30 56 1 23 55
M  V30 57 1 23 56
M  V30 58 1 25 57
M  V30 59 1 25 58
M  V30 60 1 26 59
M  V30 61 1 26 60
M  V30 END BOND
M  V30 END CTAB
M  END
