
     RDKit          3D

  0  0  0  0  0  0  0  0  0  0999 V3000
M  V30 BEGIN CTAB
M  V30 COUNTS 23 23 0 0 0
M  V30 BEGIN ATOM
M  V30 1 C 3.74581 -0.345301 -0.763778 0
M  V30 2 C 2.31216 -0.708174 -0.557789 0
M  V30 3 O 1.50683 0.369349 -0.154128 0
M  V30 4 C 0.159575 0.164774 0.070106 0
M  V30 5 C -0.386049 -1.08637 -0.101608 0
M  V30 6 C -1.74667 -1.24635 0.135318 0
M  V30 7 Cl -2.45379 -2.81411 -0.0751429 0
M  V30 8 C -2.5304 -0.185727 0.53083 0
M  V30 9 C -1.97819 1.07567 0.703532 0
M  V30 10 C -0.62125 1.23763 0.467785 0
M  V30 11 N -0.00755392 2.50961 0.630557 0
M  V30 12 N -3.90963 -0.445308 0.749106 0
M  V30 13 H 4.24106 -0.968792 -1.55185 0
M  V30 14 H 3.89592 0.740309 -0.957969 0
M  V30 15 H 4.2943 -0.560745 0.176969 0
M  V30 16 H 2.2475 -1.50562 0.214926 0
M  V30 17 H 1.94527 -1.16495 -1.51174 0
M  V30 18 H 0.271367 -1.882 -0.412237 0
M  V30 19 H -2.59206 1.90874 1.01384 0
M  V30 20 H 0.435433 3.02192 -0.14106 0
M  V30 21 H 0.00100468 2.95688 1.57388 0
M  V30 22 H -4.29996 -0.649648 1.68749 0
M  V30 23 H -4.53065 -0.421806 -0.0928392 0
M  V30 END ATOM
M  V30 BEGIN BOND
M  V30 1 1 1 2
M  V30 2 1 2 3
M  V30 3 1 3 4
M  V30 4 2 4 5
M  V30 5 1 5 6
M  V30 6 1 6 7
M  V30 7 2 6 8
M  V30 8 1 8 9
M  V30 9 2 9 10
M  V30 10 1 10 11
M  V30 11 1 8 12
M  V30 12 1 10 4
M  V30 13 1 1 13
M  V30 14 1 1 14
M  V30 15 1 1 15
M  V30 16 1 2 16
M  V30 17 1 2 17
M  V30 18 1 5 18
M  V30 19 1 9 19
M  V30 20 1 11 20
M  V30 21 1 11 21
M  V30 22 1 12 22
M  V30 23 1 12 23
M  V30 END BOND
M  V30 END CTAB
M  END
