
     RDKit          3D

  0  0  0  0  0  0  0  0  0  0999 V3000
M  V30 BEGIN CTAB
M  V30 COUNTS 38 41 0 0 0
M  V30 BEGIN ATOM
M  V30 1 N -4.59823 1.35991 -0.094642 0
M  V30 2 C -3.48684 2.21135 0.117133 0
M  V30 3 N -3.62723 3.53143 0.309618 0
M  V30 4 N -2.58489 4.32999 0.50861 0
M  V30 5 C -1.34372 3.85714 0.526882 0
M  V30 6 C -1.16267 2.49393 0.33069 0
M  V30 7 C -2.23483 1.6685 0.125405 0
M  V30 8 N -2.01416 0.337341 -0.0625402 0
M  V30 9 C -0.753804 -0.176819 -0.0488883 0
M  V30 10 C -0.583007 -1.59224 -0.251609 0
M  V30 11 C -1.12205 -2.49123 0.622655 0
M  V30 12 C -0.971281 -3.84716 0.44736 0
M  V30 13 C -0.269274 -4.32502 -0.620127 0
M  V30 14 C 0.287402 -3.44477 -1.52111 0
M  V30 15 C 0.123836 -2.06383 -1.32717 0
M  V30 16 C 0.322916 0.647588 0.156422 0
M  V30 17 N 0.0605808 1.9739 0.34057 0
M  V30 18 C 1.68887 0.140266 0.17698 0
M  V30 19 C 2.15341 -0.784381 1.07468 0
M  V30 20 C 3.46202 -1.20476 1.01951 0
M  V30 21 C 4.3443 -0.727362 0.0821934 0
M  V30 22 C 3.88609 0.210013 -0.833274 0
M  V30 23 C 2.5696 0.629035 -0.773123 0
M  V30 24 N -0.194589 4.69302 0.739434 0
M  V30 25 H -4.88416 0.61739 0.567385 0
M  V30 26 H -5.15955 1.48611 -0.963297 0
M  V30 27 H -1.6785 -2.13902 1.46916 0
M  V30 28 H -1.41314 -4.52554 1.16115 0
M  V30 29 H -0.150209 -5.40648 -0.758314 0
M  V30 30 H 0.832586 -3.82407 -2.34915 0
M  V30 31 H 0.585738 -1.4332 -2.07253 0
M  V30 32 H 1.47345 -1.18172 1.83321 0
M  V30 33 H 3.8276 -1.93581 1.73057 0
M  V30 34 H 5.38703 -1.05325 0.0271796 0
M  V30 35 H 4.59792 0.572543 -1.56252 0
M  V30 36 H 2.23144 1.36806 -1.50448 0
M  V30 37 H 0.692149 4.587 0.236452 0
M  V30 38 H -0.294802 5.44213 1.44999 0
M  V30 END ATOM
M  V30 BEGIN BOND
M  V30 1 1 1 2
M  V30 2 2 2 3
M  V30 3 1 3 4
M  V30 4 2 4 5
M  V30 5 1 5 6
M  V30 6 2 6 7
M  V30 7 1 7 8
M  V30 8 2 8 9
M  V30 9 1 9 10
M  V30 10 2 10 11
M  V30 11 1 11 12
M  V30 12 2 12 13
M  V30 13 1 13 14
M  V30 14 2 14 15
M  V30 15 1 9 16
M  V30 16 2 16 17
M  V30 17 1 16 18
M  V30 18 2 18 19
M  V30 19 1 19 20
M  V30 20 2 20 21
M  V30 21 1 21 22
M  V30 22 2 22 23
M  V30 23 1 5 24
M  V30 24 1 7 2
M  V30 25 1 15 10
M  V30 26 1 23 18
M  V30 27 1 17 6
M  V30 28 1 1 25
M  V30 29 1 1 26
M  V30 30 1 11 27
M  V30 31 1 12 28
M  V30 32 1 13 29
M  V30 33 1 14 30
M  V30 34 1 15 31
M  V30 35 1 19 32
M  V30 36 1 20 33
M  V30 37 1 21 34
M  V30 38 1 22 35
M  V30 39 1 23 36
M  V30 40 1 24 37
M  V30 41 1 24 38
M  V30 END BOND
M  V30 END CTAB
M  END
