
     RDKit          3D

  0  0  0  0  0  0  0  0  0  0999 V3000
M  V30 BEGIN CTAB
M  V30 COUNTS 61 65 0 0 0
M  V30 BEGIN ATOM
M  V30 1 C 9.57735 2.36787 1.71132 0
M  V30 2 C 8.67743 1.35609 1.07634 0
M  V30 3 C 9.19491 0.342032 0.299076 0
M  V30 4 C 8.34059 -0.586519 -0.281457 0
M  V30 5 C 6.97277 -0.542458 -0.114825 0
M  V30 6 C 6.45343 0.476864 0.666379 0
M  V30 7 C 7.30976 1.4033 1.24524 0
M  V30 8 N 5.12238 0.28986 0.663484 0
M  V30 9 C 4.78376 -0.783201 -0.0718377 0
M  V30 10 N 5.93512 -1.28469 -0.544315 0
M  V30 11 C 3.38332 -1.31017 -0.311628 0
M  V30 12 O 2.50896 -0.510996 0.373534 0
M  V30 13 C 1.20837 -0.89796 0.256471 0
M  V30 14 C 0.598931 -0.820475 -1.07543 0
M  V30 15 O 1.19426 -0.351765 -2.05804 0
M  V30 16 N -0.730109 -1.30304 -1.24694 0
M  V30 17 C -1.35788 -1.24355 -2.53703 0
M  V30 18 C -2.87148 -1.39511 -2.3666 0
M  V30 19 C -3.233 -0.51055 -1.18378 0 CFG=2
M  V30 20 C -2.75906 -1.07786 0.113746 0 CFG=2
M  V30 21 C -1.49311 -1.86574 -0.147183 0
M  V30 22 C -3.77731 -1.98053 0.770124 0
M  V30 23 O -2.44713 -0.0159127 0.95757 0
M  V30 24 N -4.66875 -0.234784 -1.16922 0
M  V30 25 C -5.61261 -0.904928 -1.85351 0
M  V30 26 N -6.8339 -0.362545 -1.58963 0
M  V30 27 C -6.67037 0.658774 -0.732942 0
M  V30 28 C -5.30565 0.713185 -0.489273 0
M  V30 29 N -4.88205 1.66723 0.350567 0
M  V30 30 C -5.6846 2.55799 0.959726 0
M  V30 31 N -5.15889 3.53915 1.83629 0
M  V30 32 N -7.00824 2.4707 0.695278 0
M  V30 33 C -7.53028 1.55271 -0.12954 0
M  V30 34 N -8.92663 1.50903 -0.369166 0
M  V30 35 H 9.60859 2.19936 2.79313 0
M  V30 36 H 9.07306 3.3555 1.53184 0
M  V30 37 H 10.5321 2.40943 1.20077 0
M  V30 38 H 10.2712 0.288537 0.154686 0
M  V30 39 H 8.74556 -1.3821 -0.891125 0
M  V30 40 H 6.89946 2.19558 1.85313 0
M  V30 41 H 4.46891 0.922148 1.18091 0
M  V30 42 H 3.33163 -2.38087 -0.0134686 0
M  V30 43 H 3.24053 -1.21572 -1.39621 0
M  V30 44 H 0.622459 -0.316383 1.01762 0
M  V30 45 H 1.10943 -1.96573 0.652688 0
M  V30 46 H -1.23082 -0.22075 -2.9949 0
M  V30 47 H -0.954208 -1.9762 -3.25079 0
M  V30 48 H -3.40438 -0.99311 -3.24558 0
M  V30 49 H -3.17253 -2.43222 -2.22645 0
M  V30 50 H -2.69455 0.449653 -1.34782 0
M  V30 51 H -1.77698 -2.92093 -0.340986 0
M  V30 52 H -0.908898 -1.80736 0.810056 0
M  V30 53 H -4.60875 -1.39227 1.23147 0
M  V30 54 H -4.22614 -2.69868 0.0870528 0
M  V30 55 H -3.28856 -2.52208 1.60577 0
M  V30 56 H -1.62732 0.452353 0.696949 0
M  V30 57 H -5.50203 -1.74488 -2.5224 0
M  V30 58 H -5.08256 4.52006 1.53118 0
M  V30 59 H -4.85135 3.27227 2.78301 0
M  V30 60 H -9.40344 2.26457 -0.901022 0
M  V30 61 H -9.48064 0.717825 -0.0123416 0
M  V30 END ATOM
M  V30 BEGIN BOND
M  V30 1 1 1 2
M  V30 2 2 2 3
M  V30 3 1 3 4
M  V30 4 2 4 5
M  V30 5 1 5 6
M  V30 6 2 6 7
M  V30 7 1 6 8
M  V30 8 1 8 9
M  V30 9 2 9 10
M  V30 10 1 9 11
M  V30 11 1 11 12
M  V30 12 1 12 13
M  V30 13 1 13 14
M  V30 14 2 14 15
M  V30 15 1 14 16
M  V30 16 1 16 17
M  V30 17 1 17 18
M  V30 18 1 18 19
M  V30 19 1 19 20
M  V30 20 1 20 21
M  V30 21 1 20 22
M  V30 22 1 20 23 CFG=1
M  V30 23 1 19 24
M  V30 24 1 24 25
M  V30 25 2 25 26
M  V30 26 1 26 27
M  V30 27 2 27 28
M  V30 28 1 28 29
M  V30 29 2 29 30
M  V30 30 1 30 31
M  V30 31 1 30 32
M  V30 32 2 32 33
M  V30 33 1 33 34
M  V30 34 1 7 2
M  V30 35 1 21 16
M  V30 36 1 28 24
M  V30 37 1 10 5
M  V30 38 1 33 27
M  V30 39 1 1 35
M  V30 40 1 1 36
M  V30 41 1 1 37
M  V30 42 1 3 38
M  V30 43 1 4 39
M  V30 44 1 7 40
M  V30 45 1 8 41
M  V30 46 1 11 42
M  V30 47 1 11 43
M  V30 48 1 13 44
M  V30 49 1 13 45
M  V30 50 1 17 46
M  V30 51 1 17 47
M  V30 52 1 18 48
M  V30 53 1 18 49
M  V30 54 1 19 50 CFG=3
M  V30 55 1 21 51
M  V30 56 1 21 52
M  V30 57 1 22 53
M  V30 58 1 22 54
M  V30 59 1 22 55
M  V30 60 1 23 56
M  V30 61 1 25 57
M  V30 62 1 31 58
M  V30 63 1 31 59
M  V30 64 1 34 60
M  V30 65 1 34 61
M  V30 END BOND
M  V30 END CTAB
M  END
