
     RDKit          3D

  0  0  0  0  0  0  0  0  0  0999 V3000
M  V30 BEGIN CTAB
M  V30 COUNTS 33 33 0 0 0
M  V30 BEGIN ATOM
M  V30 1 C -4.45088 1.80891 1.11537 0
M  V30 2 C -3.84525 0.585742 0.508577 0
M  V30 3 C -2.45838 0.486318 0.369064 0
M  V30 4 C -1.8343 -0.614526 -0.182387 0
M  V30 5 N -0.454566 -0.779414 -0.35163 0
M  V30 6 C 0.594248 0.0886135 -0.0210107 0
M  V30 7 O 0.385926 1.19316 0.503681 0
M  V30 8 C 2.02875 -0.250599 -0.274517 0
M  V30 9 C 2.94907 0.841682 0.168209 0
M  V30 10 N 4.32541 0.472734 -0.0951161 0
M  V30 11 C 5.37271 1.35349 0.241227 0
M  V30 12 S 5.06144 2.78193 0.922241 0
M  V30 13 N 6.72112 0.990537 -0.0174384 0
M  V30 14 C -2.68985 -1.63889 -0.598693 0
M  V30 15 C -4.06224 -1.5666 -0.47271 0
M  V30 16 C -4.63946 -0.451135 0.0823494 0
M  V30 17 N -2.07424 -2.796 -1.17569 0
M  V30 18 H -5.37828 1.52851 1.62878 0
M  V30 19 H -4.74799 2.53358 0.304467 0
M  V30 20 H -3.72792 2.26745 1.81171 0
M  V30 21 H -1.88247 1.32101 0.716474 0
M  V30 22 H -0.125097 -1.69478 -0.79703 0
M  V30 23 H 2.12993 -0.4004 -1.36858 0
M  V30 24 H 2.32572 -1.17817 0.236307 0
M  V30 25 H 2.74405 1.80939 -0.333903 0
M  V30 26 H 2.88259 1.04405 1.25594 0
M  V30 27 H 4.53548 -0.468286 -0.544134 0
M  V30 28 H 7.48243 1.08057 0.700536 0
M  V30 29 H 6.95791 0.619721 -0.962367 0
M  V30 30 H -4.69828 -2.39091 -0.811243 0
M  V30 31 H -5.72126 -0.350734 0.201752 0
M  V30 32 H -1.86444 -3.62328 -0.56841 0
M  V30 33 H -1.84187 -2.80281 -2.19182 0
M  V30 END ATOM
M  V30 BEGIN BOND
M  V30 1 1 1 2
M  V30 2 2 2 3
M  V30 3 1 3 4
M  V30 4 1 4 5
M  V30 5 1 5 6
M  V30 6 2 6 7
M  V30 7 1 6 8
M  V30 8 1 8 9
M  V30 9 1 9 10
M  V30 10 1 10 11
M  V30 11 2 11 12
M  V30 12 1 11 13
M  V30 13 2 4 14
M  V30 14 1 14 15
M  V30 15 2 15 16
M  V30 16 1 14 17
M  V30 17 1 16 2
M  V30 18 1 1 18
M  V30 19 1 1 19
M  V30 20 1 1 20
M  V30 21 1 3 21
M  V30 22 1 5 22
M  V30 23 1 8 23
M  V30 24 1 8 24
M  V30 25 1 9 25
M  V30 26 1 9 26
M  V30 27 1 10 27
M  V30 28 1 13 28
M  V30 29 1 13 29
M  V30 30 1 15 30
M  V30 31 1 16 31
M  V30 32 1 17 32
M  V30 33 1 17 33
M  V30 END BOND
M  V30 END CTAB
M  END
