
     RDKit          3D

  0  0  0  0  0  0  0  0  0  0999 V3000
M  V30 BEGIN CTAB
M  V30 COUNTS 31 31 0 0 0
M  V30 BEGIN ATOM
M  V30 1 C 3.39455 -0.477927 0.278476 0
M  V30 2 C 2.73271 0.488368 -0.657444 0 CFG=1
M  V30 3 C 1.27178 0.731911 -0.373829 0
M  V30 4 C 0.540713 -0.550641 -0.490245 0
M  V30 5 C -0.915735 -0.442806 -0.239675 0
M  V30 6 C -1.56061 0.697783 0.114166 0
M  V30 7 C -2.93725 0.667106 0.321739 0
M  V30 8 C -3.68739 1.87233 0.706861 0
M  V30 9 C -3.63635 -0.520439 0.166636 0
M  V30 10 N -2.97553 -1.62693 -0.182109 0
M  V30 11 C -1.64703 -1.60297 -0.383577 0
M  V30 12 N -1.03321 -2.84839 -0.756775 0
M  V30 13 O 1.0194 -1.43934 0.49184 0
M  V30 14 N 3.48634 1.72392 -0.731076 0
M  V30 15 H 4.48898 -0.210134 0.27341 0
M  V30 16 H 3.07244 -0.422359 1.32324 0
M  V30 17 H 3.3901 -1.53675 -0.0884984 0
M  V30 18 H 2.84966 0.0302055 -1.68593 0
M  V30 19 H 0.918702 1.4818 -1.11855 0
M  V30 20 H 1.13125 1.14279 0.649364 0
M  V30 21 H 0.712275 -0.988804 -1.47334 0
M  V30 22 H -1.00238 1.60527 0.229054 0
M  V30 23 H -4.16176 1.68103 1.71281 0
M  V30 24 H -4.53354 2.0162 -0.00539044 0
M  V30 25 H -3.02989 2.76088 0.731751 0
M  V30 26 H -4.72552 -0.549277 0.330054 0
M  V30 27 H -1.30064 -3.72903 -0.302091 0
M  V30 28 H -0.304372 -2.84347 -1.50409 0
M  V30 29 H 0.754681 -1.0529 1.36273 0
M  V30 30 H 3.19634 2.32812 -1.51652 0
M  V30 31 H 4.49129 1.61444 -0.584317 0
M  V30 END ATOM
M  V30 BEGIN BOND
M  V30 1 1 1 2
M  V30 2 1 2 3
M  V30 3 1 3 4
M  V30 4 1 4 5
M  V30 5 2 5 6
M  V30 6 1 6 7
M  V30 7 1 7 8
M  V30 8 2 7 9
M  V30 9 1 9 10
M  V30 10 2 10 11
M  V30 11 1 11 12
M  V30 12 1 4 13
M  V30 13 1 2 14
M  V30 14 1 11 5
M  V30 15 1 1 15
M  V30 16 1 1 16
M  V30 17 1 1 17
M  V30 18 1 2 18 CFG=3
M  V30 19 1 3 19
M  V30 20 1 3 20
M  V30 21 1 4 21
M  V30 22 1 6 22
M  V30 23 1 8 23
M  V30 24 1 8 24
M  V30 25 1 8 25
M  V30 26 1 9 26
M  V30 27 1 12 27
M  V30 28 1 12 28
M  V30 29 1 13 29
M  V30 30 1 14 30
M  V30 31 1 14 31
M  V30 END BOND
M  V30 END CTAB
M  END
