
     RDKit          3D

  0  0  0  0  0  0  0  0  0  0999 V3000
M  V30 BEGIN CTAB
M  V30 COUNTS 31 31 0 0 0
M  V30 BEGIN ATOM
M  V30 1 C -2.72873 1.20145 1.02938 0
M  V30 2 C -1.52022 1.04778 0.137286 0
M  V30 3 C -1.43727 -0.300657 -0.50408 0
M  V30 4 C -0.228246 -0.39887 -1.37415 0
M  V30 5 C 1.05616 -0.200519 -0.669344 0
M  V30 6 N 1.6081 1.0191 -0.547779 0
M  V30 7 C 2.78571 1.22404 0.0947576 0
M  V30 8 N 3.35424 2.51919 0.213778 0
M  V30 9 N 3.40918 0.160078 0.622348 0
M  V30 10 C 2.90026 -1.08614 0.529703 0
M  V30 11 N 1.72851 -1.22671 -0.119763 0
M  V30 12 N 3.60046 -2.17324 1.105 0
M  V30 13 C -2.64895 -0.51702 -1.41883 0
M  V30 14 C -1.51441 -1.34566 0.564651 0
M  V30 15 H -3.63549 0.77401 0.575244 0
M  V30 16 H -2.92179 2.30646 1.11501 0
M  V30 17 H -2.52986 0.852657 2.05192 0
M  V30 18 H -1.59722 1.8189 -0.655656 0
M  V30 19 H -0.617418 1.22223 0.751408 0
M  V30 20 H -0.151486 -1.37528 -1.9035 0
M  V30 21 H -0.356584 0.356032 -2.20565 0
M  V30 22 H 3.88316 2.72174 1.1 0
M  V30 23 H 3.2758 3.26169 -0.515355 0
M  V30 24 H 3.98725 -2.06339 2.06023 0
M  V30 25 H 3.74884 -3.07742 0.622268 0
M  V30 26 H -2.68497 0.304048 -2.14031 0
M  V30 27 H -2.45448 -1.45494 -1.9994 0
M  V30 28 H -3.56845 -0.687205 -0.849257 0
M  V30 29 H -1.12852 -2.34044 0.216891 0
M  V30 30 H -1.02681 -1.03124 1.50835 0
M  V30 31 H -2.58675 -1.51069 0.805099 0
M  V30 END ATOM
M  V30 BEGIN BOND
M  V30 1 1 1 2
M  V30 2 1 2 3
M  V30 3 1 3 4
M  V30 4 1 4 5
M  V30 5 2 5 6
M  V30 6 1 6 7
M  V30 7 1 7 8
M  V30 8 2 7 9
M  V30 9 1 9 10
M  V30 10 2 10 11
M  V30 11 1 10 12
M  V30 12 1 3 13
M  V30 13 1 3 14
M  V30 14 1 11 5
M  V30 15 1 1 15
M  V30 16 1 1 16
M  V30 17 1 1 17
M  V30 18 1 2 18
M  V30 19 1 2 19
M  V30 20 1 4 20
M  V30 21 1 4 21
M  V30 22 1 8 22
M  V30 23 1 8 23
M  V30 24 1 12 24
M  V30 25 1 12 25
M  V30 26 1 13 26
M  V30 27 1 13 27
M  V30 28 1 13 28
M  V30 29 1 14 29
M  V30 30 1 14 30
M  V30 31 1 14 31
M  V30 END BOND
M  V30 END CTAB
M  END
