
     RDKit          3D

  0  0  0  0  0  0  0  0  0  0999 V3000
M  V30 BEGIN CTAB
M  V30 COUNTS 38 39 0 0 0
M  V30 BEGIN ATOM
M  V30 1 N 5.42929 2.16692 -0.219242 0
M  V30 2 C 5.11844 0.811092 -0.39097 0
M  V30 3 C 3.72737 0.580934 0.125142 0
M  V30 4 N 2.92203 1.47074 0.753288 0
M  V30 5 N 1.77117 0.891241 1.05096 0
M  V30 6 C 1.8039 -0.365498 0.629837 0
M  V30 7 N 3.00788 -0.553642 0.0608705 0
M  V30 8 C 3.53094 -1.78032 -0.558996 0
M  V30 9 S 0.581801 -1.66028 0.721809 0
M  V30 10 C -0.929447 -1.10677 1.53591 0
M  V30 11 C -1.64614 -0.0351214 0.712051 0 CFG=2
M  V30 12 C -2.87307 0.366343 1.4431 0
M  V30 13 C -3.99521 0.876512 0.618539 0
M  V30 14 C -3.53019 1.22977 -0.784298 0
M  V30 15 C -3.08026 -0.118698 -1.3595 0 CFG=1
M  V30 16 C -1.78549 -0.45724 -0.689292 0
M  V30 17 N -4.0963 -1.13459 -1.15147 0
M  V30 18 H 4.67577 2.79194 -0.157085 0
M  V30 19 H 6.26191 2.43877 -0.672578 0
M  V30 20 H 5.14217 0.569825 -1.46516 0
M  V30 21 H 5.79808 0.183794 0.224678 0
M  V30 22 H 3.04587 -2.68089 -0.163941 0
M  V30 23 H 3.35672 -1.74153 -1.66258 0
M  V30 24 H 4.61701 -1.87749 -0.423739 0
M  V30 25 H -0.666348 -0.652339 2.49541 0
M  V30 26 H -1.5747 -1.99354 1.67425 0
M  V30 27 H -0.941884 0.842691 0.739583 0
M  V30 28 H -3.27609 -0.491171 2.05105 0
M  V30 29 H -2.64201 1.15406 2.21352 0
M  V30 30 H -4.80054 0.0964198 0.484032 0
M  V30 31 H -4.49527 1.73442 1.08036 0
M  V30 32 H -2.59129 1.83303 -0.700965 0
M  V30 33 H -4.30819 1.6936 -1.38922 0
M  V30 34 H -2.93862 0.033152 -2.43643 0
M  V30 35 H -0.967198 -0.0460124 -1.34457 0
M  V30 36 H -1.66165 -1.56772 -0.763474 0
M  V30 37 H -4.06216 -1.7885 -1.97511 0
M  V30 38 H -3.92829 -1.71393 -0.305773 0
M  V30 END ATOM
M  V30 BEGIN BOND
M  V30 1 1 1 2
M  V30 2 1 2 3
M  V30 3 2 3 4
M  V30 4 1 4 5
M  V30 5 2 5 6
M  V30 6 1 6 7
M  V30 7 1 7 8
M  V30 8 1 6 9
M  V30 9 1 9 10
M  V30 10 1 10 11
M  V30 11 1 11 12
M  V30 12 1 12 13
M  V30 13 1 13 14
M  V30 14 1 14 15
M  V30 15 1 15 16
M  V30 16 1 15 17
M  V30 17 1 7 3
M  V30 18 1 16 11
M  V30 19 1 1 18
M  V30 20 1 1 19
M  V30 21 1 2 20
M  V30 22 1 2 21
M  V30 23 1 8 22
M  V30 24 1 8 23
M  V30 25 1 8 24
M  V30 26 1 10 25
M  V30 27 1 10 26
M  V30 28 1 11 27 CFG=3
M  V30 29 1 12 28
M  V30 30 1 12 29
M  V30 31 1 13 30
M  V30 32 1 13 31
M  V30 33 1 14 32
M  V30 34 1 14 33
M  V30 35 1 15 34 CFG=3
M  V30 36 1 16 35
M  V30 37 1 16 36
M  V30 38 1 17 37
M  V30 39 1 17 38
M  V30 END BOND
M  V30 END CTAB
M  END
