
     RDKit          3D

  0  0  0  0  0  0  0  0  0  0999 V3000
M  V30 BEGIN CTAB
M  V30 COUNTS 41 43 0 0 0
M  V30 BEGIN ATOM
M  V30 1 N 5.97363 0.648132 0.397476 0
M  V30 2 C 5.72078 -0.374904 -0.594246 0
M  V30 3 C 4.7554 0.0124591 -1.68923 0
M  V30 4 C 3.71169 -0.92333 -1.15128 0
M  V30 5 C 4.74578 -1.44292 -0.167607 0
M  V30 6 C 2.58331 -0.201343 -0.512331 0
M  V30 7 C 1.2701 -0.550282 -0.743261 0
M  V30 8 C 0.212125 0.115562 -0.15327 0
M  V30 9 N -1.13882 -0.253199 -0.398818 0
M  V30 10 C -2.21113 0.466271 0.23567 0
M  V30 11 C -3.56613 -0.0592135 -0.1378 0
M  V30 12 C -4.66108 0.732085 0.55647 0
M  V30 13 N -5.97238 0.234274 0.2039 0
M  V30 14 N -6.69627 0.661781 -0.82224 0
M  V30 15 N -7.83479 -0.017026 -0.836402 0
M  V30 16 C -7.86608 -0.892917 0.178128 0
M  V30 17 C -6.67297 -0.738321 0.852134 0
M  V30 18 N 0.53889 1.13102 0.665206 0
M  V30 19 C 1.81911 1.4834 0.900336 0
M  V30 20 N 2.83463 0.823951 0.317366 0
M  V30 21 N 2.09892 2.58423 1.79076 0
M  V30 22 H 5.68423 0.258606 1.33667 0
M  V30 23 H 6.98452 0.869312 0.487657 0
M  V30 24 H 6.68974 -0.789142 -0.952805 0
M  V30 25 H 4.52275 1.08858 -1.64083 0
M  V30 26 H 5.06819 -0.274536 -2.70973 0
M  V30 27 H 3.40427 -1.75023 -1.81617 0
M  V30 28 H 4.4453 -1.36206 0.894219 0
M  V30 29 H 5.12723 -2.45961 -0.389993 0
M  V30 30 H 1.01697 -1.37473 -1.40828 0
M  V30 31 H -1.34129 -1.03952 -1.03466 0
M  V30 32 H -2.03767 0.46707 1.31953 0
M  V30 33 H -2.12158 1.54256 -0.0916257 0
M  V30 34 H -3.69355 -0.0297956 -1.22305 0
M  V30 35 H -3.65016 -1.10354 0.235286 0
M  V30 36 H -4.57251 1.78528 0.18166 0
M  V30 37 H -4.5543 0.715086 1.64182 0
M  V30 38 H -8.6746 -1.56061 0.387845 0
M  V30 39 H -6.33396 -1.26825 1.72306 0
M  V30 40 H 2.23599 3.50521 1.34887 0
M  V30 41 H 2.15571 2.43893 2.81956 0
M  V30 END ATOM
M  V30 BEGIN BOND
M  V30 1 1 1 2
M  V30 2 1 2 3
M  V30 3 1 3 4
M  V30 4 1 4 5
M  V30 5 1 4 6
M  V30 6 2 6 7
M  V30 7 1 7 8
M  V30 8 1 8 9
M  V30 9 1 9 10
M  V30 10 1 10 11
M  V30 11 1 11 12
M  V30 12 1 12 13
M  V30 13 1 13 14
M  V30 14 2 14 15
M  V30 15 1 15 16
M  V30 16 2 16 17
M  V30 17 2 8 18
M  V30 18 1 18 19
M  V30 19 2 19 20
M  V30 20 1 19 21
M  V30 21 1 5 2
M  V30 22 1 20 6
M  V30 23 1 17 13
M  V30 24 1 1 22
M  V30 25 1 1 23
M  V30 26 1 2 24
M  V30 27 1 3 25
M  V30 28 1 3 26
M  V30 29 1 4 27
M  V30 30 1 5 28
M  V30 31 1 5 29
M  V30 32 1 7 30
M  V30 33 1 9 31
M  V30 34 1 10 32
M  V30 35 1 10 33
M  V30 36 1 11 34
M  V30 37 1 11 35
M  V30 38 1 12 36
M  V30 39 1 12 37
M  V30 40 1 16 38
M  V30 41 1 17 39
M  V30 42 1 21 40
M  V30 43 1 21 41
M  V30 END BOND
M  V30 END CTAB
M  END
