
     RDKit          3D

  0  0  0  0  0  0  0  0  0  0999 V3000
M  V30 BEGIN CTAB
M  V30 COUNTS 28 29 0 0 0
M  V30 BEGIN ATOM
M  V30 1 C -3.94453 -1.8542 0.450538 0
M  V30 2 N -3.77288 -0.444989 0.221918 0
M  V30 3 C -2.49336 0.160955 0.0554992 0
M  V30 4 N -2.36177 1.48147 -0.157065 0
M  V30 5 C -1.16275 2.06751 -0.315849 0
M  V30 6 N -1.00409 3.4541 -0.540199 0
M  V30 7 N -0.0570707 1.27586 -0.255347 0
M  V30 8 C -0.132868 -0.0394654 -0.0467433 0
M  V30 9 N -1.35636 -0.571138 0.104978 0
M  V30 10 C 1.08609 -0.837368 0.00834062 0 CFG=2
M  V30 11 C 2.1939 -0.252708 0.897399 0
M  V30 12 C 3.15304 -0.890941 -0.0928632 0 CFG=1
M  V30 13 C 2.06714 -0.620478 -1.1442 0
M  V30 14 N 4.38105 -0.20647 -0.301727 0
M  V30 15 H -3.14499 -2.46338 -0.0379587 0
M  V30 16 H -3.89244 -2.05932 1.54921 0
M  V30 17 H -4.89933 -2.24676 0.0922862 0
M  V30 18 H -4.62243 0.152903 0.177029 0
M  V30 19 H -0.614098 3.78977 -1.43713 0
M  V30 20 H -1.28044 4.12127 0.197171 0
M  V30 21 H 0.977993 -1.91582 0.181825 0
M  V30 22 H 2.18286 0.847849 0.807003 0
M  V30 23 H 2.22352 -0.661466 1.90999 0
M  V30 24 H 3.24371 -1.97778 0.0385653 0
M  V30 25 H 2.10145 0.436059 -1.4787 0
M  V30 26 H 2.00951 -1.37928 -1.9331 0
M  V30 27 H 4.6855 0.269333 0.566646 0
M  V30 28 H 4.43364 0.364488 -1.15071 0
M  V30 END ATOM
M  V30 BEGIN BOND
M  V30 1 1 1 2
M  V30 2 1 2 3
M  V30 3 2 3 4
M  V30 4 1 4 5
M  V30 5 1 5 6
M  V30 6 2 5 7
M  V30 7 1 7 8
M  V30 8 2 8 9
M  V30 9 1 8 10
M  V30 10 1 10 11
M  V30 11 1 11 12
M  V30 12 1 12 13
M  V30 13 1 12 14
M  V30 14 1 9 3
M  V30 15 1 13 10
M  V30 16 1 1 15
M  V30 17 1 1 16
M  V30 18 1 1 17
M  V30 19 1 2 18
M  V30 20 1 6 19
M  V30 21 1 6 20
M  V30 22 1 10 21 CFG=1
M  V30 23 1 11 22
M  V30 24 1 11 23
M  V30 25 1 12 24 CFG=1
M  V30 26 1 13 25
M  V30 27 1 13 26
M  V30 28 1 14 27
M  V30 29 1 14 28
M  V30 END BOND
M  V30 END CTAB
M  END
