
     RDKit          3D

  0  0  0  0  0  0  0  0  0  0999 V3000
M  V30 BEGIN CTAB
M  V30 COUNTS 42 45 0 0 0
M  V30 BEGIN ATOM
M  V30 1 N -1.87302 6.02565 0.242539 0
M  V30 2 C -2.70974 5.258 0.166762 0
M  V30 3 N -3.7365 4.36448 0.0764092 0
M  V30 4 C -3.60846 3.11929 0.0238505 0
M  V30 5 C -2.32389 2.43988 0.0522849 0
M  V30 6 S -0.779971 3.13843 0.146023 0
M  V30 7 C 0.178475 1.72788 0.124245 0
M  V30 8 C -0.753042 0.721183 0.043474 0
M  V30 9 C -2.04349 1.09852 0.00588223 0
M  V30 10 N -3.18403 0.198789 -0.106034 0
M  V30 11 C -0.181201 -0.545975 -0.00126086 0
M  V30 12 C 1.21116 -0.704712 0.0332524 0
M  V30 13 C 2.05929 0.332976 0.111889 0
M  V30 14 N 1.51523 1.56296 0.157763 0
M  V30 15 C 3.5204 0.206913 0.150081 0
M  V30 16 C 4.18065 -0.99584 0.109193 0
M  V30 17 C 5.56707 -1.08349 0.147013 0
M  V30 18 C 6.32169 0.063241 0.228192 0
M  V30 19 C 5.67803 1.26496 0.269535 0
M  V30 20 C 4.31908 1.35033 0.232436 0
M  V30 21 C -0.968553 -1.7664 -0.0264998 0
M  V30 22 C -1.00015 -2.60694 -1.12494 0
M  V30 23 C -1.70763 -3.78944 -1.09103 0
M  V30 24 C -2.38943 -4.14533 0.0358953 0
M  V30 25 C -2.36804 -3.31797 1.14024 0
M  V30 26 C -1.66042 -2.13777 1.10283 0
M  V30 27 N -4.79571 2.33223 -0.0720646 0
M  V30 28 H -3.35276 -0.307204 -0.98061 0
M  V30 29 H -3.79448 0.118137 0.756567 0
M  V30 30 H 1.62952 -1.7143 -0.00532028 0
M  V30 31 H 3.628 -1.91764 0.0455873 0
M  V30 32 H 6.0646 -2.03213 0.114048 0
M  V30 33 H 7.40927 0.0520985 0.260782 0
M  V30 34 H 6.23503 2.21149 0.334527 0
M  V30 35 H 3.833 2.31529 0.266573 0
M  V30 36 H -0.445856 -2.28656 -1.99778 0
M  V30 37 H -1.68251 -4.40046 -2.00405 0
M  V30 38 H -2.938 -5.08328 0.0327561 0
M  V30 39 H -2.92194 -3.63801 2.01263 0
M  V30 40 H -1.65983 -1.50999 1.97801 0
M  V30 41 H -5.30331 1.99887 0.773202 0
M  V30 42 H -5.16855 2.08185 -1.01245 0
M  V30 END ATOM
M  V30 BEGIN BOND
M  V30 1 3 1 2
M  V30 2 1 2 3
M  V30 3 2 3 4
M  V30 4 1 4 5
M  V30 5 1 5 6
M  V30 6 1 6 7
M  V30 7 2 7 8
M  V30 8 1 8 9
M  V30 9 1 9 10
M  V30 10 1 8 11
M  V30 11 2 11 12
M  V30 12 1 12 13
M  V30 13 2 13 14
M  V30 14 1 13 15
M  V30 15 2 15 16
M  V30 16 1 16 17
M  V30 17 2 17 18
M  V30 18 1 18 19
M  V30 19 2 19 20
M  V30 20 1 11 21
M  V30 21 2 21 22
M  V30 22 1 22 23
M  V30 23 2 23 24
M  V30 24 1 24 25
M  V30 25 2 25 26
M  V30 26 1 4 27
M  V30 27 2 9 5
M  V30 28 1 20 15
M  V30 29 1 26 21
M  V30 30 1 14 7
M  V30 31 1 10 28
M  V30 32 1 10 29
M  V30 33 1 12 30
M  V30 34 1 16 31
M  V30 35 1 17 32
M  V30 36 1 18 33
M  V30 37 1 19 34
M  V30 38 1 20 35
M  V30 39 1 22 36
M  V30 40 1 23 37
M  V30 41 1 24 38
M  V30 42 1 25 39
M  V30 43 1 26 40
M  V30 44 1 27 41
M  V30 45 1 27 42
M  V30 END BOND
M  V30 END CTAB
M  END
