
     RDKit          3D

  0  0  0  0  0  0  0  0  0  0999 V3000
M  V30 BEGIN CTAB
M  V30 COUNTS 73 76 0 0 0
M  V30 BEGIN ATOM
M  V30 1 O 0.351152 -4.8042 -2.55248 0
M  V30 2 C -0.60216 -4.20899 -1.98912 0
M  V30 3 C -0.138747 -3.3345 -0.818471 0 CFG=1
M  V30 4 O 0.7151 -2.42279 -1.29674 0
M  V30 5 C 0.917819 -1.25679 -0.579323 0 CFG=1
M  V30 6 O 1.79421 -0.390402 -1.19708 0
M  V30 7 C 3.00269 -0.232407 -0.527711 0
M  V30 8 C 3.20213 1.187 -0.135658 0 CFG=1
M  V30 9 O 2.82533 1.31809 1.21702 0
M  V30 10 C 4.64917 1.62554 -0.186134 0 CFG=2
M  V30 11 N 4.74801 3.05547 0.117598 0
M  V30 12 C 5.31567 1.40837 -1.50177 0
M  V30 13 C 4.70678 0.27184 -2.25847 0 CFG=1
M  V30 14 C 4.16294 -0.79214 -1.32681 0 CFG=1
M  V30 15 O 5.18594 -1.1292 -0.441778 0
M  V30 16 N 3.62103 0.732805 -3.10346 0
M  V30 17 C 4.09209 1.66778 -4.11086 0
M  V30 18 C -0.380862 -0.68531 -0.153438 0
M  V30 19 C -0.913646 -1.7196 0.864459 0 CFG=2
M  V30 20 C -1.29097 -2.88015 0.0253082 0 CFG=1
M  V30 21 O -2.36119 -2.47808 -0.803864 0
M  V30 22 O -1.89875 -0.998779 1.45822 0
M  V30 23 C -1.61896 0.351824 1.28713 0 CFG=1
M  V30 24 O -0.383631 0.430864 0.614789 0
M  V30 25 O -2.651 0.899613 0.553746 0
M  V30 26 C -3.83737 0.585569 1.25376 0 CFG=2
M  V30 27 C -5.05195 0.825705 0.405882 0 CFG=1
M  V30 28 C -6.2699 0.394187 1.19464 0
M  V30 29 O -6.11807 -0.928602 1.62824 0
M  V30 30 N -5.20368 2.18543 -0.0373906 0
M  V30 31 C -3.91128 1.39604 2.50458 0 CFG=1
M  V30 32 C -2.69858 1.22762 3.3897 0 CFG=1
M  V30 33 C -1.46618 1.11194 2.56145 0 CFG=1
M  V30 34 O -0.377799 0.635785 3.31195 0
M  V30 35 O -2.58131 2.40698 4.14939 0
M  V30 36 O -4.14179 2.73916 2.29659 0
M  V30 37 H 0.719215 -5.39839 -2.84477 0
M  V30 38 H -1.32045 -4.98597 -1.65435 0
M  V30 39 H -1.19795 -3.57565 -2.71152 0
M  V30 40 H 0.448633 -4.04929 -0.165185 0
M  V30 41 H 1.44618 -1.60621 0.359516 0
M  V30 42 H 2.95111 -0.859966 0.383678 0
M  V30 43 H 2.63652 1.92024 -0.763855 0
M  V30 44 H 3.46269 0.861128 1.78967 0
M  V30 45 H 5.26823 1.12672 0.611651 0
M  V30 46 H 3.83383 3.4386 0.435946 0
M  V30 47 H 5.54563 3.27405 0.746512 0
M  V30 48 H 6.40858 1.24443 -1.40691 0
M  V30 49 H 5.21027 2.3378 -2.11461 0
M  V30 50 H 5.47796 -0.157885 -2.9281 0
M  V30 51 H 3.91842 -1.66976 -1.9185 0
M  V30 52 H 5.74285 -1.87312 -0.81478 0
M  V30 53 H 3.26755 -0.107902 -3.62849 0
M  V30 54 H 3.9554 2.69062 -3.68537 0
M  V30 55 H 3.47587 1.6542 -5.03384 0
M  V30 56 H 5.17759 1.55968 -4.29809 0
M  V30 57 H -1.1159 -0.549793 -0.969447 0
M  V30 58 H -0.0547907 -1.95305 1.53699 0
M  V30 59 H -1.69049 -3.67351 0.680188 0
M  V30 60 H -3.13851 -3.08629 -0.717287 0
M  V30 61 H -3.85825 -0.487785 1.54586 0
M  V30 62 H -5.05864 0.196192 -0.513712 0
M  V30 63 H -7.18758 0.395933 0.566085 0
M  V30 64 H -6.49711 1.02487 2.05951 0
M  V30 65 H -6.64986 -1.1275 2.43575 0
M  V30 66 H -6.2076 2.46273 -0.137419 0
M  V30 67 H -4.67954 2.34064 -0.924466 0
M  V30 68 H -4.77426 1.00913 3.12233 0
M  V30 69 H -2.83471 0.378176 4.11086 0
M  V30 70 H -1.16804 2.15959 2.26822 0
M  V30 71 H 0.455131 0.803603 2.80381 0
M  V30 72 H -2.24984 3.10487 3.50951 0
M  V30 73 H -5.1104 2.98322 2.45073 0
M  V30 END ATOM
M  V30 BEGIN BOND
M  V30 1 1 1 2
M  V30 2 1 2 3
M  V30 3 1 3 4
M  V30 4 1 4 5
M  V30 5 1 5 6
M  V30 6 1 6 7
M  V30 7 1 7 8
M  V30 8 1 8 9
M  V30 9 1 8 10
M  V30 10 1 10 11
M  V30 11 1 10 12
M  V30 12 1 12 13
M  V30 13 1 13 14
M  V30 14 1 14 15
M  V30 15 1 13 16
M  V30 16 1 16 17
M  V30 17 1 5 18
M  V30 18 1 18 19
M  V30 19 1 19 20
M  V30 20 1 20 21
M  V30 21 1 19 22
M  V30 22 1 23 22 CFG=1
M  V30 23 1 23 24
M  V30 24 1 23 25
M  V30 25 1 25 26
M  V30 26 1 26 27
M  V30 27 1 27 28
M  V30 28 1 28 29
M  V30 29 1 27 30
M  V30 30 1 26 31
M  V30 31 1 31 32
M  V30 32 1 32 33
M  V30 33 1 33 34
M  V30 34 1 32 35
M  V30 35 1 31 36
M  V30 36 1 20 3
M  V30 37 1 33 23
M  V30 38 1 14 7
M  V30 39 1 24 18
M  V30 40 1 1 37
M  V30 41 1 2 38
M  V30 42 1 2 39
M  V30 43 1 3 40 CFG=1
M  V30 44 1 5 41 CFG=1
M  V30 45 1 7 42
M  V30 46 1 8 43 CFG=3
M  V30 47 1 9 44
M  V30 48 1 10 45 CFG=1
M  V30 49 1 11 46
M  V30 50 1 11 47
M  V30 51 1 12 48
M  V30 52 1 12 49
M  V30 53 1 13 50 CFG=3
M  V30 54 1 14 51 CFG=3
M  V30 55 1 15 52
M  V30 56 1 16 53
M  V30 57 1 17 54
M  V30 58 1 17 55
M  V30 59 1 17 56
M  V30 60 1 18 57
M  V30 61 1 19 58 CFG=1
M  V30 62 1 20 59 CFG=1
M  V30 63 1 21 60
M  V30 64 1 26 61 CFG=1
M  V30 65 1 27 62 CFG=3
M  V30 66 1 28 63
M  V30 67 1 28 64
M  V30 68 1 29 65
M  V30 69 1 30 66
M  V30 70 1 30 67
M  V30 71 1 31 68 CFG=1
M  V30 72 1 32 69 CFG=1
M  V30 73 1 33 70 CFG=3
M  V30 74 1 34 71
M  V30 75 1 35 72
M  V30 76 1 36 73
M  V30 END BOND
M  V30 END CTAB
M  END
