
     RDKit          3D

  0  0  0  0  0  0  0  0  0  0999 V3000
M  V30 BEGIN CTAB
M  V30 COUNTS 50 51 0 0 0
M  V30 BEGIN ATOM
M  V30 1 S -1.09336 3.27709 -1.57379 0
M  V30 2 C 0.021665 2.12695 -1.18929 0
M  V30 3 N -0.305252 0.98729 -0.441589 0
M  V30 4 C -1.65725 0.713155 0.0180035 0
M  V30 5 C -2.4959 0.325855 -1.14821 0
M  V30 6 C -3.90833 0.0235944 -0.82863 0
M  V30 7 C -4.2079 -1.27482 -0.439985 0
M  V30 8 C -5.48475 -1.68583 -0.128508 0
M  V30 9 C -6.49704 -0.781157 -0.204598 0
M  V30 10 C -6.20521 0.505044 -0.588606 0
M  V30 11 C -4.92695 0.918056 -0.900912 0
M  V30 12 S -8.15022 -1.21508 0.173217 0
M  V30 13 O -9.03979 -0.299273 -0.649679 0
M  V30 14 O -8.44185 -2.65188 -0.150802 0
M  V30 15 N -8.39444 -0.926627 1.85663 0
M  V30 16 N 1.33055 2.3646 -1.62906 0
M  V30 17 C 2.41176 1.48358 -1.32206 0
M  V30 18 C 2.83336 1.58918 0.130363 0
M  V30 19 C 3.94354 0.621536 0.299342 0
M  V30 20 C 3.71599 -0.663213 0.663177 0
M  V30 21 C 4.75416 -1.59025 0.816865 0
M  V30 22 C 6.0422 -1.1623 0.585927 0
M  V30 23 C 6.28836 0.154812 0.212037 0
M  V30 24 C 5.22895 1.04896 0.0692099 0
M  V30 25 S 7.40425 -2.27526 0.757261 0
M  V30 26 O 6.91875 -3.70253 0.54342 0
M  V30 27 O 8.41051 -1.89382 -0.268999 0
M  V30 28 N 7.98987 -2.16115 2.37173 0
M  V30 29 H 0.431237 0.291542 -0.217271 0
M  V30 30 H -1.64191 -0.142242 0.732721 0
M  V30 31 H -1.98951 1.65291 0.511878 0
M  V30 32 H -2.04904 -0.64222 -1.54114 0
M  V30 33 H -2.38445 1.02764 -1.97104 0
M  V30 34 H -3.41694 -2.03574 -0.365299 0
M  V30 35 H -5.71286 -2.69669 0.173659 0
M  V30 36 H -7.00707 1.22227 -0.650003 0
M  V30 37 H -4.74428 1.92008 -1.19313 0
M  V30 38 H -8.34138 -1.80592 2.41664 0
M  V30 39 H -7.79086 -0.160754 2.22845 0
M  V30 40 H 1.58265 3.21721 -2.21383 0
M  V30 41 H 3.26826 1.67195 -2.00244 0
M  V30 42 H 2.13781 0.407901 -1.48886 0
M  V30 43 H 2.0614 1.42357 0.858955 0
M  V30 44 H 3.2359 2.6208 0.341328 0
M  V30 45 H 2.72742 -1.00616 0.843939 0
M  V30 46 H 4.59816 -2.61114 1.10377 0
M  V30 47 H 7.31898 0.426514 0.0465939 0
M  V30 48 H 5.46261 2.06168 -0.223248 0
M  V30 49 H 7.20422 -2.28462 3.02873 0
M  V30 50 H 8.56396 -1.32065 2.54715 0
M  V30 END ATOM
M  V30 BEGIN BOND
M  V30 1 2 1 2
M  V30 2 1 2 3
M  V30 3 1 3 4
M  V30 4 1 4 5
M  V30 5 1 5 6
M  V30 6 2 6 7
M  V30 7 1 7 8
M  V30 8 2 8 9
M  V30 9 1 9 10
M  V30 10 2 10 11
M  V30 11 1 9 12
M  V30 12 2 12 13
M  V30 13 2 12 14
M  V30 14 1 12 15
M  V30 15 1 2 16
M  V30 16 1 16 17
M  V30 17 1 17 18
M  V30 18 1 18 19
M  V30 19 2 19 20
M  V30 20 1 20 21
M  V30 21 2 21 22
M  V30 22 1 22 23
M  V30 23 2 23 24
M  V30 24 1 22 25
M  V30 25 2 25 26
M  V30 26 2 25 27
M  V30 27 1 25 28
M  V30 28 1 11 6
M  V30 29 1 24 19
M  V30 30 1 3 29
M  V30 31 1 4 30
M  V30 32 1 4 31
M  V30 33 1 5 32
M  V30 34 1 5 33
M  V30 35 1 7 34
M  V30 36 1 8 35
M  V30 37 1 10 36
M  V30 38 1 11 37
M  V30 39 1 15 38
M  V30 40 1 15 39
M  V30 41 1 16 40
M  V30 42 1 17 41
M  V30 43 1 17 42
M  V30 44 1 18 43
M  V30 45 1 18 44
M  V30 46 1 20 45
M  V30 47 1 21 46
M  V30 48 1 23 47
M  V30 49 1 24 48
M  V30 50 1 28 49
M  V30 51 1 28 50
M  V30 END BOND
M  V30 END CTAB
M  END
