
     RDKit          3D

  0  0  0  0  0  0  0  0  0  0999 V3000
M  V30 BEGIN CTAB
M  V30 COUNTS 33 35 0 0 0
M  V30 BEGIN ATOM
M  V30 1 O -2.41801 2.84091 1.43508 0
M  V30 2 C -2.83014 1.61917 0.969461 0
M  V30 3 C -1.82792 0.517688 1.19513 0
M  V30 4 O -0.621288 0.739888 0.586997 0
M  V30 5 C -0.707703 0.391299 -0.734405 0
M  V30 6 C -1.93807 -0.465517 -0.90844 0
M  V30 7 C -2.31569 -0.752417 0.531032 0
M  V30 8 N -3.75171 -0.895278 0.592995 0
M  V30 9 N 0.46974 -0.29433 -1.22518 0
M  V30 10 C 0.516171 -1.058 -2.33187 0
M  V30 11 N 1.77034 -1.52858 -2.47127 0
M  V30 12 C 2.53008 -1.08158 -1.47513 0
M  V30 13 C 1.70761 -0.286896 -0.666206 0
M  V30 14 N 2.16971 0.3222 0.437459 0
M  V30 15 C 3.45789 0.173278 0.787926 0
M  V30 16 N 3.98603 0.813778 1.96717 0
M  V30 17 N 4.24206 -0.588519 0.0105916 0
M  V30 18 C 3.84967 -1.22452 -1.10192 0
M  V30 19 O 4.59628 -1.93502 -1.82017 0
M  V30 20 H -2.36946 3.53798 0.725205 0
M  V30 21 H -3.00422 1.72853 -0.132258 0
M  V30 22 H -3.80621 1.31622 1.39278 0
M  V30 23 H -1.66442 0.384574 2.28556 0
M  V30 24 H -0.893699 1.33874 -1.31346 0
M  V30 25 H -2.7803 0.105733 -1.34516 0
M  V30 26 H -1.71913 -1.39505 -1.46993 0
M  V30 27 H -1.79127 -1.64543 0.925082 0
M  V30 28 H -4.05794 -1.57087 1.34171 0
M  V30 29 H -4.06175 -1.28874 -0.331519 0
M  V30 30 H -0.35199 -1.23629 -2.97937 0
M  V30 31 H 3.82821 1.82761 2.15892 0
M  V30 32 H 4.54593 0.288634 2.67365 0
M  V30 33 H 5.24119 -0.699192 0.289553 0
M  V30 END ATOM
M  V30 BEGIN BOND
M  V30 1 1 1 2
M  V30 2 1 2 3
M  V30 3 1 3 4
M  V30 4 1 4 5
M  V30 5 1 5 6
M  V30 6 1 6 7
M  V30 7 1 7 8
M  V30 8 1 5 9
M  V30 9 1 9 10
M  V30 10 2 10 11
M  V30 11 1 11 12
M  V30 12 2 12 13
M  V30 13 1 13 14
M  V30 14 2 14 15
M  V30 15 1 15 16
M  V30 16 1 15 17
M  V30 17 1 17 18
M  V30 18 2 18 19
M  V30 19 1 7 3
M  V30 20 1 13 9
M  V30 21 1 18 12
M  V30 22 1 1 20
M  V30 23 1 2 21
M  V30 24 1 2 22
M  V30 25 1 3 23
M  V30 26 1 5 24
M  V30 27 1 6 25
M  V30 28 1 6 26
M  V30 29 1 7 27
M  V30 30 1 8 28
M  V30 31 1 8 29
M  V30 32 1 10 30
M  V30 33 1 16 31
M  V30 34 1 16 32
M  V30 35 1 17 33
M  V30 END BOND
M  V30 END CTAB
M  END
