
     RDKit          3D

  0  0  0  0  0  0  0  0  0  0999 V3000
M  V30 BEGIN CTAB
M  V30 COUNTS 36 37 0 0 0
M  V30 BEGIN ATOM
M  V30 1 C -2.17377 -1.16896 1.29712 0
M  V30 2 C -2.13242 -0.51543 -0.0586022 0
M  V30 3 C -3.26756 -0.952025 -0.940014 0
M  V30 4 O -0.884708 -0.802792 -0.619609 0
M  V30 5 B -0.0247478 0.0744223 0.172678 0
M  V30 6 O -0.850608 1.1051 0.837718 0
M  V30 7 C -2.05504 0.965692 0.135545 0
M  V30 8 C -3.23161 1.49464 0.919738 0
M  V30 9 C -1.90008 1.72598 -1.15786 0
M  V30 10 C 1.51829 -0.118508 0.280759 0
M  V30 11 C 2.18687 -0.17526 1.48558 0
M  V30 12 C 3.55931 -0.348231 1.5218 0
M  V30 13 F 4.22125 -0.404263 2.72141 0
M  V30 14 C 4.28166 -0.466808 0.352425 0
M  V30 15 C 3.61529 -0.410696 -0.867958 0
M  V30 16 C 2.24033 -0.237056 -0.889062 0
M  V30 17 N 1.56987 -0.181154 -2.14203 0
M  V30 18 N 5.69307 -0.645363 0.361092 0
M  V30 19 H -1.54738 -0.581923 2.00932 0
M  V30 20 H -1.77549 -2.19777 1.18748 0
M  V30 21 H -3.18178 -1.25385 1.70906 0
M  V30 22 H -4.17273 -1.04256 -0.286445 0
M  V30 23 H -3.45988 -0.251954 -1.75363 0
M  V30 24 H -3.00837 -1.95091 -1.35813 0
M  V30 25 H -3.43634 0.782618 1.73016 0
M  V30 26 H -4.07519 1.58968 0.191765 0
M  V30 27 H -3.02629 2.47246 1.37022 0
M  V30 28 H -0.997659 1.3969 -1.67267 0
M  V30 29 H -2.79452 1.69289 -1.79735 0
M  V30 30 H -1.7436 2.80265 -0.86579 0
M  V30 31 H 1.60181 -0.0803939 2.38146 0
M  V30 32 H 4.15243 -0.500474 -1.80709 0
M  V30 33 H 1.21131 -1.09801 -2.54397 0
M  V30 34 H 1.43122 0.700372 -2.64754 0
M  V30 35 H 6.25435 -0.299764 1.15893 0
M  V30 36 H 6.20269 -1.11927 -0.416495 0
M  V30 END ATOM
M  V30 BEGIN BOND
M  V30 1 1 1 2
M  V30 2 1 2 3
M  V30 3 1 2 4
M  V30 4 1 4 5
M  V30 5 1 5 6
M  V30 6 1 6 7
M  V30 7 1 7 8
M  V30 8 1 7 9
M  V30 9 1 5 10
M  V30 10 2 10 11
M  V30 11 1 11 12
M  V30 12 1 12 13
M  V30 13 2 12 14
M  V30 14 1 14 15
M  V30 15 2 15 16
M  V30 16 1 16 17
M  V30 17 1 14 18
M  V30 18 1 7 2
M  V30 19 1 16 10
M  V30 20 1 1 19
M  V30 21 1 1 20
M  V30 22 1 1 21
M  V30 23 1 3 22
M  V30 24 1 3 23
M  V30 25 1 3 24
M  V30 26 1 8 25
M  V30 27 1 8 26
M  V30 28 1 8 27
M  V30 29 1 9 28
M  V30 30 1 9 29
M  V30 31 1 9 30
M  V30 32 1 11 31
M  V30 33 1 15 32
M  V30 34 1 17 33
M  V30 35 1 17 34
M  V30 36 1 18 35
M  V30 37 1 18 36
M  V30 END BOND
M  V30 END CTAB
M  END
