
     RDKit          3D

  0  0  0  0  0  0  0  0  0  0999 V3000
M  V30 BEGIN CTAB
M  V30 COUNTS 47 50 0 0 0
M  V30 BEGIN ATOM
M  V30 1 N -5.13407 0.140717 -2.39658 0
M  V30 2 C -4.46257 0.424526 -1.1908 0
M  V30 3 N -5.14925 0.961283 -0.140201 0
M  V30 4 C -4.5593 1.24916 1.02552 0
M  V30 5 N -5.24505 1.80595 2.13198 0
M  V30 6 C -3.2009 0.978537 1.13202 0
M  V30 7 C -2.47259 0.434715 0.0880817 0
M  V30 8 N -3.16082 0.180514 -1.04644 0
M  V30 9 N -1.18321 0.277461 0.46428 0
M  V30 10 C -1.09689 0.72014 1.74095 0
M  V30 11 N -2.31141 1.14096 2.13963 0
M  V30 12 C -0.109969 -0.261923 -0.350633 0 CFG=1
M  V30 13 C 1.19225 0.262802 0.223969 0
M  V30 14 C 2.39424 -0.282869 -0.506995 0
M  V30 15 C 3.54291 -0.41216 0.478557 0
M  V30 16 C 3.96108 0.983944 0.891418 0
M  V30 17 N 4.61422 1.65035 -0.192261 0
M  V30 18 C 4.30899 1.02928 -1.44528 0
M  V30 19 C 2.84741 0.662965 -1.59309 0
M  V30 20 O 2.14027 -1.51671 -1.08984 0
M  V30 21 C 1.36692 -2.2596 -0.221816 0
M  V30 22 C -0.0788384 -1.76174 -0.359202 0 CFG=1
M  V30 23 C -0.834092 -2.36396 0.820427 0
M  V30 24 O -0.581189 -2.33044 -1.50142 0
M  V30 25 H -4.88105 0.643922 -3.25876 0
M  V30 26 H -5.87848 -0.570369 -2.41619 0
M  V30 27 H -5.6573 2.7509 2.03424 0
M  V30 28 H -5.33517 1.28433 3.021 0
M  V30 29 H -0.219301 0.749577 2.37382 0
M  V30 30 H -0.261136 0.0772924 -1.40232 0
M  V30 31 H 1.17069 1.36605 0.177518 0
M  V30 32 H 1.25076 -0.130029 1.2659 0
M  V30 33 H 3.13832 -0.907735 1.38519 0
M  V30 34 H 4.38021 -0.999941 0.0623195 0
M  V30 35 H 3.00631 1.52388 1.14095 0
M  V30 36 H 4.54638 0.955096 1.82895 0
M  V30 37 H 4.43216 2.66972 -0.164713 0
M  V30 38 H 4.97532 0.184396 -1.69349 0
M  V30 39 H 4.50611 1.80242 -2.24413 0
M  V30 40 H 2.71343 0.253378 -2.60803 0
M  V30 41 H 2.27727 1.6146 -1.54619 0
M  V30 42 H 1.38891 -3.31939 -0.611405 0
M  V30 43 H 1.67259 -2.21076 0.82306 0
M  V30 44 H -1.91894 -2.37185 0.630241 0
M  V30 45 H -0.539989 -1.89865 1.76796 0
M  V30 46 H -0.513366 -3.44395 0.889694 0
M  V30 47 H -1.04188 -1.73679 -2.11271 0
M  V30 END ATOM
M  V30 BEGIN BOND
M  V30 1 1 1 2
M  V30 2 2 2 3
M  V30 3 1 3 4
M  V30 4 1 4 5
M  V30 5 2 4 6
M  V30 6 1 6 7
M  V30 7 2 7 8
M  V30 8 1 7 9
M  V30 9 1 9 10
M  V30 10 2 10 11
M  V30 11 1 9 12
M  V30 12 1 12 13
M  V30 13 1 13 14
M  V30 14 1 14 15
M  V30 15 1 15 16
M  V30 16 1 16 17
M  V30 17 1 17 18
M  V30 18 1 18 19
M  V30 19 1 14 20
M  V30 20 1 20 21
M  V30 21 1 21 22
M  V30 22 1 22 23
M  V30 23 1 22 24 CFG=3
M  V30 24 1 8 2
M  V30 25 1 22 12
M  V30 26 1 11 6
M  V30 27 1 19 14
M  V30 28 1 1 25
M  V30 29 1 1 26
M  V30 30 1 5 27
M  V30 31 1 5 28
M  V30 32 1 10 29
M  V30 33 1 12 30 CFG=3
M  V30 34 1 13 31
M  V30 35 1 13 32
M  V30 36 1 15 33
M  V30 37 1 15 34
M  V30 38 1 16 35
M  V30 39 1 16 36
M  V30 40 1 17 37
M  V30 41 1 18 38
M  V30 42 1 18 39
M  V30 43 1 19 40
M  V30 44 1 19 41
M  V30 45 1 21 42
M  V30 46 1 21 43
M  V30 47 1 23 44
M  V30 48 1 23 45
M  V30 49 1 23 46
M  V30 50 1 24 47
M  V30 END BOND
M  V30 END CTAB
M  END
