
     RDKit          3D

  0  0  0  0  0  0  0  0  0  0999 V3000
M  V30 BEGIN CTAB
M  V30 COUNTS 42 43 0 0 0
M  V30 BEGIN ATOM
M  V30 1 C 5.34121 -1.66274 0.306004 0
M  V30 2 C 5.1071 -0.317573 -0.330127 0
M  V30 3 C 3.96801 0.42447 0.336318 0
M  V30 4 C 2.73157 -0.424817 0.187628 0
M  V30 5 C 1.53791 0.169028 0.789162 0
M  V30 6 O 1.43729 0.485386 2.00263 0
M  V30 7 N 0.407652 0.413388 -0.0295107 0
M  V30 8 C -0.829546 1.00408 0.485587 0
M  V30 9 C -1.08832 2.23071 -0.368324 0
M  V30 10 C -2.38245 2.90502 -0.0573594 0
M  V30 11 C -3.43218 2.01167 0.517671 0
M  V30 12 C -3.22041 0.574315 0.214561 0
M  V30 13 C -1.94485 0.0501197 0.192222 0
M  V30 14 C -1.72845 -1.28218 -0.0871422 0
M  V30 15 C -2.78731 -2.14666 -0.356643 0
M  V30 16 C -4.06237 -1.62849 -0.335605 0
M  V30 17 C -4.28429 -0.276898 -0.0523713 0
M  V30 18 N -5.15965 -2.50567 -0.610748 0
M  V30 19 N 2.49546 -0.656487 -1.21758 0
M  V30 20 H 5.10866 -1.64049 1.40247 0
M  V30 21 H 6.42522 -1.90635 0.232555 0
M  V30 22 H 4.79991 -2.48125 -0.202648 0
M  V30 23 H 6.05757 0.266226 -0.279006 0
M  V30 24 H 4.8679 -0.466412 -1.40629 0
M  V30 25 H 4.22596 0.622307 1.37759 0
M  V30 26 H 3.8404 1.39536 -0.176882 0
M  V30 27 H 2.928 -1.39122 0.730288 0
M  V30 28 H 0.373427 0.19026 -1.06082 0
M  V30 29 H -0.768422 1.22535 1.55448 0
M  V30 30 H -1.04829 1.89701 -1.42031 0
M  V30 31 H -0.251517 2.93943 -0.200173 0
M  V30 32 H -2.73752 3.41412 -0.976583 0
M  V30 33 H -2.16716 3.69995 0.713972 0
M  V30 34 H -3.52913 2.10914 1.63187 0
M  V30 35 H -4.43642 2.2816 0.118738 0
M  V30 36 H -0.738848 -1.67105 -0.100517 0
M  V30 37 H -2.63883 -3.19267 -0.577548 0
M  V30 38 H -5.29021 0.107234 -0.0412358 0
M  V30 39 H -5.98446 -2.1708 -1.15031 0
M  V30 40 H -5.14992 -3.49078 -0.276013 0
M  V30 41 H 1.7054 -1.32686 -1.3272 0
M  V30 42 H 2.3019 0.22322 -1.71324 0
M  V30 END ATOM
M  V30 BEGIN BOND
M  V30 1 1 1 2
M  V30 2 1 2 3
M  V30 3 1 3 4
M  V30 4 1 4 5
M  V30 5 2 5 6
M  V30 6 1 5 7
M  V30 7 1 7 8
M  V30 8 1 8 9
M  V30 9 1 9 10
M  V30 10 1 10 11
M  V30 11 1 11 12
M  V30 12 2 12 13
M  V30 13 1 13 14
M  V30 14 2 14 15
M  V30 15 1 15 16
M  V30 16 2 16 17
M  V30 17 1 16 18
M  V30 18 1 4 19
M  V30 19 1 13 8
M  V30 20 1 17 12
M  V30 21 1 1 20
M  V30 22 1 1 21
M  V30 23 1 1 22
M  V30 24 1 2 23
M  V30 25 1 2 24
M  V30 26 1 3 25
M  V30 27 1 3 26
M  V30 28 1 4 27
M  V30 29 1 7 28
M  V30 30 1 8 29
M  V30 31 1 9 30
M  V30 32 1 9 31
M  V30 33 1 10 32
M  V30 34 1 10 33
M  V30 35 1 11 34
M  V30 36 1 11 35
M  V30 37 1 14 36
M  V30 38 1 15 37
M  V30 39 1 17 38
M  V30 40 1 18 39
M  V30 41 1 18 40
M  V30 42 1 19 41
M  V30 43 1 19 42
M  V30 END BOND
M  V30 END CTAB
M  END
