
     RDKit          3D

  0  0  0  0  0  0  0  0  0  0999 V3000
M  V30 BEGIN CTAB
M  V30 COUNTS 33 34 0 0 0
M  V30 BEGIN ATOM
M  V30 1 N 5.18451 -0.0934754 0.579254 0
M  V30 2 C 4.7949 0.407061 -0.662204 0
M  V30 3 C 3.374 0.938404 -0.55536 0
M  V30 4 C 2.42616 -0.158452 -0.144494 0 CFG=1
M  V30 5 C 1.06318 0.411445 -0.0560977 0
M  V30 6 O 0.682186 1.6639 -0.0553666 0
M  V30 7 N -0.608411 1.7465 0.0383658 0
M  V30 8 C -1.13343 0.508893 0.104382 0
M  V30 9 N -0.0561721 -0.327277 0.0429726 0
M  V30 10 N -2.48231 0.108559 0.213034 0
M  V30 11 C -3.53667 1.06686 0.270173 0
M  V30 12 C -4.89791 0.511003 0.00103744 0
M  V30 13 O -5.13021 -0.747762 0.450753 0
M  V30 14 C -4.09436 -1.36754 1.09877 0
M  V30 15 C -2.80621 -1.28936 0.267589 0
M  V30 16 N 2.4581 -1.25709 -1.08161 0
M  V30 17 H 5.94796 0.272086 1.0617 0
M  V30 18 H 4.77669 -0.904098 0.918546 0
M  V30 19 H 5.47093 1.21326 -1.00276 0
M  V30 20 H 4.85028 -0.409923 -1.41426 0
M  V30 21 H 3.04455 1.38557 -1.52799 0
M  V30 22 H 3.36431 1.72663 0.224887 0
M  V30 23 H 2.76872 -0.545133 0.839694 0
M  V30 24 H -3.33264 1.83085 -0.535059 0
M  V30 25 H -3.54424 1.66035 1.21848 0
M  V30 26 H -5.14716 0.582544 -1.09821 0
M  V30 27 H -5.63915 1.2001 0.49635 0
M  V30 28 H -3.91161 -0.84417 2.05718 0
M  V30 29 H -4.36052 -2.4206 1.2878 0
M  V30 30 H -3.04934 -1.59777 -0.790695 0
M  V30 31 H -2.02338 -1.91948 0.704255 0
M  V30 32 H 2.36073 -0.980093 -2.06519 0
M  V30 33 H 3.18652 -1.95421 -0.885923 0
M  V30 END ATOM
M  V30 BEGIN BOND
M  V30 1 1 1 2
M  V30 2 1 2 3
M  V30 3 1 3 4
M  V30 4 1 4 5
M  V30 5 1 5 6
M  V30 6 1 6 7
M  V30 7 2 7 8
M  V30 8 1 8 9
M  V30 9 1 8 10
M  V30 10 1 10 11
M  V30 11 1 11 12
M  V30 12 1 12 13
M  V30 13 1 13 14
M  V30 14 1 14 15
M  V30 15 1 4 16
M  V30 16 2 9 5
M  V30 17 1 15 10
M  V30 18 1 1 17
M  V30 19 1 1 18
M  V30 20 1 2 19
M  V30 21 1 2 20
M  V30 22 1 3 21
M  V30 23 1 3 22
M  V30 24 1 4 23 CFG=1
M  V30 25 1 11 24
M  V30 26 1 11 25
M  V30 27 1 12 26
M  V30 28 1 12 27
M  V30 29 1 14 28
M  V30 30 1 14 29
M  V30 31 1 15 30
M  V30 32 1 15 31
M  V30 33 1 16 32
M  V30 34 1 16 33
M  V30 END BOND
M  V30 END CTAB
M  END
