
     RDKit          3D

  0  0  0  0  0  0  0  0  0  0999 V3000
M  V30 BEGIN CTAB
M  V30 COUNTS 21 21 0 0 0
M  V30 BEGIN ATOM
M  V30 1 Cl 3.62657 2.24253 0.0557693 0
M  V30 2 C 3.04597 0.6509 -0.420928 0
M  V30 3 C 2.9203 -0.310862 0.460969 0
M  V30 4 C 2.43364 -1.65523 0.0730464 0
M  V30 5 S 0.92557 -1.97464 1.0176 0
M  V30 6 C -0.412297 -0.890218 0.512798 0
M  V30 7 N -0.593802 0.317991 1.07732 0
M  V30 8 C -1.59551 1.14119 0.714318 0
M  V30 9 N -1.78641 2.42869 1.3113 0
M  V30 10 N -2.43367 0.726675 -0.245583 0
M  V30 11 C -2.31518 -0.48419 -0.865471 0
M  V30 12 N -1.28972 -1.25358 -0.45041 0
M  V30 13 N -3.21731 -0.895734 -1.87135 0
M  V30 14 Cl 3.33336 -0.00193702 2.13314 0
M  V30 15 H 2.77701 0.435665 -1.47154 0
M  V30 16 H 2.19387 -1.72753 -1.00052 0
M  V30 17 H 3.16919 -2.43747 0.371402 0
M  V30 18 H -2.67618 2.92827 1.21308 0
M  V30 19 H -1.01108 2.8522 1.84674 0
M  V30 20 H -4.07108 -1.40335 -1.60361 0
M  V30 21 H -3.02324 -0.689365 -2.85807 0
M  V30 END ATOM
M  V30 BEGIN BOND
M  V30 1 1 1 2
M  V30 2 2 2 3 CFG=2
M  V30 3 1 3 4
M  V30 4 1 4 5
M  V30 5 1 5 6
M  V30 6 2 6 7
M  V30 7 1 7 8
M  V30 8 1 8 9
M  V30 9 2 8 10
M  V30 10 1 10 11
M  V30 11 2 11 12
M  V30 12 1 11 13
M  V30 13 1 3 14
M  V30 14 1 12 6
M  V30 15 1 2 15
M  V30 16 1 4 16
M  V30 17 1 4 17
M  V30 18 1 9 18
M  V30 19 1 9 19
M  V30 20 1 13 20
M  V30 21 1 13 21
M  V30 END BOND
M  V30 END CTAB
M  END
