
     RDKit          3D

  0  0  0  0  0  0  0  0  0  0999 V3000
M  V30 BEGIN CTAB
M  V30 COUNTS 37 38 0 0 0
M  V30 BEGIN ATOM
M  V30 1 N -3.4602 0.496867 -1.7046 0
M  V30 2 C -3.0001 0.329391 -0.349476 0
M  V30 3 C -4.16005 0.031024 0.563736 0
M  V30 4 C -4.33432 1.55291 0.675036 0
M  V30 5 C -2.85088 1.64446 0.357274 0
M  V30 6 C -1.84193 -0.609849 -0.268074 0
M  V30 7 N -1.34201 -0.815005 1.05549 0
M  V30 8 S -0.0132246 -1.91723 0.98949 0
M  V30 9 O 0.501984 -2.21437 2.38565 0
M  V30 10 O -0.502942 -3.21403 0.369976 0
M  V30 11 C 1.30304 -1.30705 0.0370687 0
M  V30 12 C 1.38153 -1.55452 -1.30312 0
M  V30 13 C 2.41213 -1.08834 -2.10141 0
M  V30 14 C 3.39087 -0.336908 -1.46375 0
M  V30 15 C 3.33995 -0.0699548 -0.113157 0
M  V30 16 C 2.2863 -0.559966 0.642359 0
M  V30 17 S 4.62649 0.884393 0.573835 0
M  V30 18 O 5.12523 1.85068 -0.476737 0
M  V30 19 O 4.04537 1.72324 1.68306 0
M  V30 20 N 5.93012 -0.0791598 1.12284 0
M  V30 21 H -2.71427 0.804898 -2.34699 0
M  V30 22 H -3.84944 -0.413849 -2.02482 0
M  V30 23 H -3.89939 -0.348054 1.57184 0
M  V30 24 H -5.02745 -0.464703 0.0822789 0
M  V30 25 H -4.61974 1.88919 1.68692 0
M  V30 26 H -4.98399 1.89244 -0.151455 0
M  V30 27 H -2.29122 1.56693 1.33382 0
M  V30 28 H -2.57802 2.51133 -0.248023 0
M  V30 29 H -2.18877 -1.59337 -0.688414 0
M  V30 30 H -1.06581 -0.251582 -0.974609 0
M  V30 31 H -2.09051 -1.28992 1.61314 0
M  V30 32 H 0.603937 -2.14178 -1.76557 0
M  V30 33 H 2.45753 -1.29479 -3.16283 0
M  V30 34 H 4.21732 0.0419394 -2.08128 0
M  V30 35 H 2.28254 -0.328885 1.69766 0
M  V30 36 H 6.81361 0.192232 0.634934 0
M  V30 37 H 6.0963 0.136569 2.1479 0
M  V30 END ATOM
M  V30 BEGIN BOND
M  V30 1 1 1 2
M  V30 2 1 2 3
M  V30 3 1 3 4
M  V30 4 1 4 5
M  V30 5 1 2 6
M  V30 6 1 6 7
M  V30 7 1 7 8
M  V30 8 2 8 9
M  V30 9 2 8 10
M  V30 10 1 8 11
M  V30 11 2 11 12
M  V30 12 1 12 13
M  V30 13 2 13 14
M  V30 14 1 14 15
M  V30 15 2 15 16
M  V30 16 1 15 17
M  V30 17 2 17 18
M  V30 18 2 17 19
M  V30 19 1 17 20
M  V30 20 1 5 2
M  V30 21 1 16 11
M  V30 22 1 1 21
M  V30 23 1 1 22
M  V30 24 1 3 23
M  V30 25 1 3 24
M  V30 26 1 4 25
M  V30 27 1 4 26
M  V30 28 1 5 27
M  V30 29 1 5 28
M  V30 30 1 6 29
M  V30 31 1 6 30
M  V30 32 1 7 31
M  V30 33 1 12 32
M  V30 34 1 13 33
M  V30 35 1 14 34
M  V30 36 1 16 35
M  V30 37 1 20 36
M  V30 38 1 20 37
M  V30 END BOND
M  V30 END CTAB
M  END
