
     RDKit          3D

  0  0  0  0  0  0  0  0  0  0999 V3000
M  V30 BEGIN CTAB
M  V30 COUNTS 51 53 0 0 0
M  V30 BEGIN ATOM
M  V30 1 N 6.72041 -1.48857 0.315269 0
M  V30 2 C 6.25113 -0.196508 0.730654 0 CFG=2
M  V30 3 C 4.96939 -0.213279 1.54208 0
M  V30 4 C 4.36053 0.774542 0.570854 0 CFG=1
M  V30 5 C 5.53157 0.561083 -0.362755 0
M  V30 6 C 3.04692 0.312884 0.0507853 0
M  V30 7 N 2.87629 -0.946557 -0.380652 0
M  V30 8 C 1.70338 -1.40586 -0.8566 0
M  V30 9 N 1.54385 -2.73878 -1.30954 0
M  V30 10 N 0.658179 -0.549825 -0.896328 0
M  V30 11 C 0.723517 0.725223 -0.490653 0
M  V30 12 C 1.96136 1.15185 -0.00609106 0
M  V30 13 N -0.392601 1.60191 -0.539927 0
M  V30 14 C -1.19179 1.77232 0.623033 0
M  V30 15 C -2.57519 1.25851 0.592425 0
M  V30 16 C -2.73553 -0.212331 0.357816 0
M  V30 17 C -4.18436 -0.576636 0.366495 0
M  V30 18 C -5.09294 -0.349516 -0.645994 0
M  V30 19 C -4.82815 0.29827 -1.95729 0
M  V30 20 N -6.26637 -0.845931 -0.177852 0
M  V30 21 N -6.09688 -1.34635 1.04085 0
M  V30 22 C -4.81599 -1.20748 1.43603 0
M  V30 23 C -4.16533 -1.61305 2.70785 0
M  V30 24 C -0.673862 2.3014 -1.79161 0
M  V30 25 H 7.60209 -1.35624 -0.203428 0
M  V30 26 H 6.0366 -1.98452 -0.281447 0
M  V30 27 H 7.02651 0.374761 1.27232 0
M  V30 28 H 4.53572 -1.21503 1.53052 0
M  V30 29 H 5.08156 0.158323 2.58298 0
M  V30 30 H 4.31303 1.82522 0.929013 0
M  V30 31 H 5.34761 -0.0164714 -1.26682 0
M  V30 32 H 6.07507 1.50923 -0.580534 0
M  V30 33 H 1.96133 -3.50345 -0.749222 0
M  V30 34 H 1.02888 -2.93127 -2.16796 0
M  V30 35 H 2.0479 2.17135 0.328129 0
M  V30 36 H -1.25251 2.88205 0.810569 0
M  V30 37 H -0.67396 1.35953 1.51492 0
M  V30 38 H -3.2511 1.78235 -0.111561 0
M  V30 39 H -3.01809 1.46367 1.612 0
M  V30 40 H -2.14835 -0.839001 1.02754 0
M  V30 41 H -2.36167 -0.410852 -0.690215 0
M  V30 42 H -3.7996 0.121633 -2.29541 0
M  V30 43 H -5.4943 -0.22317 -2.70561 0
M  V30 44 H -5.1346 1.35675 -1.94942 0
M  V30 45 H -6.83052 -1.80025 1.65623 0
M  V30 46 H -3.5364 -2.5215 2.59268 0
M  V30 47 H -3.61434 -0.775487 3.18151 0
M  V30 48 H -4.98191 -1.87855 3.42166 0
M  V30 49 H -1.28718 1.60274 -2.42621 0
M  V30 50 H -1.24911 3.22474 -1.65397 0
M  V30 51 H 0.249743 2.55613 -2.33778 0
M  V30 END ATOM
M  V30 BEGIN BOND
M  V30 1 1 1 2
M  V30 2 1 2 3
M  V30 3 1 3 4
M  V30 4 1 4 5
M  V30 5 1 4 6
M  V30 6 2 6 7
M  V30 7 1 7 8
M  V30 8 1 8 9
M  V30 9 2 8 10
M  V30 10 1 10 11
M  V30 11 2 11 12
M  V30 12 1 11 13
M  V30 13 1 13 14
M  V30 14 1 14 15
M  V30 15 1 15 16
M  V30 16 1 16 17
M  V30 17 1 17 18
M  V30 18 1 18 19
M  V30 19 2 18 20
M  V30 20 1 20 21
M  V30 21 1 21 22
M  V30 22 1 22 23
M  V30 23 1 13 24
M  V30 24 1 5 2
M  V30 25 1 12 6
M  V30 26 2 22 17
M  V30 27 1 1 25
M  V30 28 1 1 26
M  V30 29 1 2 27 CFG=1
M  V30 30 1 3 28
M  V30 31 1 3 29
M  V30 32 1 4 30 CFG=1
M  V30 33 1 5 31
M  V30 34 1 5 32
M  V30 35 1 9 33
M  V30 36 1 9 34
M  V30 37 1 12 35
M  V30 38 1 14 36
M  V30 39 1 14 37
M  V30 40 1 15 38
M  V30 41 1 15 39
M  V30 42 1 16 40
M  V30 43 1 16 41
M  V30 44 1 19 42
M  V30 45 1 19 43
M  V30 46 1 19 44
M  V30 47 1 21 45
M  V30 48 1 23 46
M  V30 49 1 23 47
M  V30 50 1 23 48
M  V30 51 1 24 49
M  V30 52 1 24 50
M  V30 53 1 24 51
M  V30 END BOND
M  V30 END CTAB
M  END
