
     RDKit          3D

  0  0  0  0  0  0  0  0  0  0999 V3000
M  V30 BEGIN CTAB
M  V30 COUNTS 36 37 0 0 0
M  V30 BEGIN ATOM
M  V30 1 C 4.24437 -1.15034 0.405763 0
M  V30 2 C 3.20531 -0.0426024 0.392519 0
M  V30 3 C 1.93354 -0.66267 -0.16481 0
M  V30 4 N 0.85417 0.258741 -0.241397 0
M  V30 5 C 0.627812 1.06868 -1.41389 0
M  V30 6 O 1.09643 0.913187 -2.56552 0
M  V30 7 C -0.286047 2.16737 -1.03947 0
M  V30 8 C -0.235189 2.10835 0.470872 0 CFG=1
M  V30 9 C -0.203133 0.615087 0.731815 0 CFG=1
M  V30 10 C -1.46798 -0.0432414 0.426679 0
M  V30 11 C -2.66214 0.638059 0.501191 0
M  V30 12 C -3.83328 -0.0524465 0.192346 0
M  V30 13 C -3.83701 -1.37785 -0.180487 0
M  V30 14 C -2.60491 -2.0409 -0.246055 0
M  V30 15 C -1.43688 -1.38048 0.0539672 0
M  V30 16 N -2.5361 -3.4091 -0.623742 0
M  V30 17 N 0.990111 2.75063 0.904357 0
M  V30 18 H 3.74965 -2.1166 0.557332 0
M  V30 19 H 5.04392 -0.973265 1.13168 0
M  V30 20 H 4.693 -1.16166 -0.616621 0
M  V30 21 H 3.01978 0.201419 1.47662 0
M  V30 22 H 3.52606 0.844927 -0.150652 0
M  V30 23 H 1.76253 -1.55461 0.467295 0
M  V30 24 H 2.1838 -1.06206 -1.17379 0
M  V30 25 H 0.120568 3.14922 -1.37429 0
M  V30 26 H -1.29108 2.00989 -1.44964 0
M  V30 27 H -1.06025 2.6558 0.877513 0
M  V30 28 H 0.147022 0.464497 1.76875 0
M  V30 29 H -2.77052 1.6746 0.784113 0
M  V30 30 H -4.7879 0.472134 0.246184 0
M  V30 31 H -4.74772 -1.92009 -0.42213 0
M  V30 32 H -0.522222 -1.94469 -0.0153356 0
M  V30 33 H -2.86167 -4.16538 0.00547155 0
M  V30 34 H -2.15116 -3.6503 -1.54956 0
M  V30 35 H 0.84176 3.22466 1.82751 0
M  V30 36 H 1.25534 3.49103 0.217078 0
M  V30 END ATOM
M  V30 BEGIN BOND
M  V30 1 1 1 2
M  V30 2 1 2 3
M  V30 3 1 3 4
M  V30 4 1 4 5
M  V30 5 2 5 6
M  V30 6 1 5 7
M  V30 7 1 7 8
M  V30 8 1 8 9
M  V30 9 1 9 10
M  V30 10 2 10 11
M  V30 11 1 11 12
M  V30 12 2 12 13
M  V30 13 1 13 14
M  V30 14 2 14 15
M  V30 15 1 14 16
M  V30 16 1 8 17
M  V30 17 1 9 4
M  V30 18 1 15 10
M  V30 19 1 1 18
M  V30 20 1 1 19
M  V30 21 1 1 20
M  V30 22 1 2 21
M  V30 23 1 2 22
M  V30 24 1 3 23
M  V30 25 1 3 24
M  V30 26 1 7 25
M  V30 27 1 7 26
M  V30 28 1 8 27 CFG=1
M  V30 29 1 9 28 CFG=1
M  V30 30 1 11 29
M  V30 31 1 12 30
M  V30 32 1 13 31
M  V30 33 1 15 32
M  V30 34 1 16 33
M  V30 35 1 16 34
M  V30 36 1 17 35
M  V30 37 1 17 36
M  V30 END BOND
M  V30 END CTAB
M  END
