
     RDKit          3D

  0  0  0  0  0  0  0  0  0  0999 V3000
M  V30 BEGIN CTAB
M  V30 COUNTS 25 25 0 0 0
M  V30 BEGIN ATOM
M  V30 1 N 4.01506 -0.131611 -0.401461 0
M  V30 2 C 2.59954 -0.142935 -0.299699 0
M  V30 3 C 1.86347 -1.00391 -1.05381 0
M  V30 4 C 0.510404 -1.01484 -0.956627 0
M  V30 5 C -0.25165 -0.170271 -0.0988411 0
M  V30 6 C 0.508862 0.673684 0.63725 0
M  V30 7 C 1.91152 0.696029 0.546797 0
M  V30 8 N -0.0221145 1.58906 1.54635 0
M  V30 9 C -1.6906 -0.324108 -0.160053 0
M  V30 10 C -2.40103 -0.683575 1.09917 0
M  V30 11 F -2.35865 0.150469 2.15872 0
M  V30 12 F -1.8569 -1.89927 1.62009 0
M  V30 13 F -3.72404 -1.05428 0.871013 0
M  V30 14 C -2.43671 0.608341 -1.07531 0
M  V30 15 F -2.33797 1.94252 -0.817867 0
M  V30 16 F -3.79799 0.344817 -1.03353 0
M  V30 17 F -2.09707 0.309672 -2.39371 0
M  V30 18 F -1.88467 -1.55178 -0.90681 0
M  V30 19 H 4.61801 -0.13391 0.438161 0
M  V30 20 H 4.43606 -0.120759 -1.35966 0
M  V30 21 H 2.38576 -1.67947 -1.7329 0
M  V30 22 H 0.00675088 -1.73442 -1.60197 0
M  V30 23 H 2.4634 1.39807 1.16544 0
M  V30 24 H -0.532883 2.42077 1.21902 0
M  V30 25 H 0.0734418 1.51171 2.59025 0
M  V30 END ATOM
M  V30 BEGIN BOND
M  V30 1 1 1 2
M  V30 2 2 2 3
M  V30 3 1 3 4
M  V30 4 2 4 5
M  V30 5 1 5 6
M  V30 6 2 6 7
M  V30 7 1 6 8
M  V30 8 1 5 9
M  V30 9 1 9 10
M  V30 10 1 10 11
M  V30 11 1 10 12
M  V30 12 1 10 13
M  V30 13 1 9 14
M  V30 14 1 14 15
M  V30 15 1 14 16
M  V30 16 1 14 17
M  V30 17 1 9 18
M  V30 18 1 7 2
M  V30 19 1 1 19
M  V30 20 1 1 20
M  V30 21 1 3 21
M  V30 22 1 4 22
M  V30 23 1 7 23
M  V30 24 1 8 24
M  V30 25 1 8 25
M  V30 END BOND
M  V30 END CTAB
M  END
