
     RDKit          3D

  0  0  0  0  0  0  0  0  0  0999 V3000
M  V30 BEGIN CTAB
M  V30 COUNTS 19 19 0 0 0
M  V30 BEGIN ATOM
M  V30 1 N 1.49364 -1.98338 -0.126303 0
M  V30 2 C 1.03834 -0.637213 -0.0716132 0
M  V30 3 C 1.93125 0.429614 -0.098747 0
M  V30 4 C 1.49402 1.74453 -0.0457717 0
M  V30 5 C 0.135336 2.0096 0.036308 0
M  V30 6 C -0.761922 0.960293 0.064059 0
M  V30 7 C -0.310292 -0.362629 0.0101035 0
M  V30 8 C -1.2507 -1.50278 0.0382716 0
M  V30 9 N -2.1599 1.17375 0.147219 0
M  V30 10 F -0.340596 3.29556 0.0908564 0
M  V30 11 H 1.58279 -2.48424 0.783403 0
M  V30 12 H 1.73372 -2.47497 -1.00168 0
M  V30 13 H 2.98778 0.191344 -0.163289 0
M  V30 14 H 2.18918 2.57927 -0.0668135 0
M  V30 15 H -1.40343 -1.80505 -1.03935 0
M  V30 16 H -2.23582 -1.26022 0.43395 0
M  V30 17 H -0.751276 -2.35603 0.524768 0
M  V30 18 H -2.59103 1.05228 1.10658 0
M  V30 19 H -2.78109 1.43029 -0.621954 0
M  V30 END ATOM
M  V30 BEGIN BOND
M  V30 1 1 1 2
M  V30 2 2 2 3
M  V30 3 1 3 4
M  V30 4 2 4 5
M  V30 5 1 5 6
M  V30 6 2 6 7
M  V30 7 1 7 8
M  V30 8 1 6 9
M  V30 9 1 5 10
M  V30 10 1 7 2
M  V30 11 1 1 11
M  V30 12 1 1 12
M  V30 13 1 3 13
M  V30 14 1 4 14
M  V30 15 1 8 15
M  V30 16 1 8 16
M  V30 17 1 8 17
M  V30 18 1 9 18
M  V30 19 1 9 19
M  V30 END BOND
M  V30 END CTAB
M  END
