
     RDKit          3D

  0  0  0  0  0  0  0  0  0  0999 V3000
M  V30 BEGIN CTAB
M  V30 COUNTS 63 66 0 0 0
M  V30 BEGIN ATOM
M  V30 1 C -4.2913 -3.85024 1.32529 0
M  V30 2 O -3.60633 -2.75084 0.756187 0
M  V30 3 C -2.20356 -2.8191 0.764512 0
M  V30 4 O -1.62777 -3.82203 1.26149 0
M  V30 5 C -1.38363 -1.73604 0.200609 0
M  V30 6 C -0.0888496 -1.85332 0.234543 0
M  V30 7 N 0.519559 -3.00997 0.807797 0
M  V30 8 N 0.774861 -0.839472 -0.298147 0
M  V30 9 C 0.253554 0.344165 -0.889392 0
M  V30 10 C -1.06841 0.447204 -0.914564 0
M  V30 11 C -2.01467 -0.540082 -0.39231 0
M  V30 12 C -2.9366 0.0887596 0.620306 0
M  V30 13 C -2.45954 0.539743 1.82215 0
M  V30 14 C -3.29832 1.11909 2.74949 0
M  V30 15 C -4.65386 1.25113 2.46609 0
M  V30 16 C -5.15073 0.79869 1.2529 0
M  V30 17 C -4.28915 0.232465 0.364351 0
M  V30 18 N -6.52111 0.926806 0.954735 0 CHG=1
M  V30 19 O -7.29254 1.44172 1.77127 0
M  V30 20 O -7.00807 0.482753 -0.238969 0 CHG=-1
M  V30 21 C -1.59296 1.66266 -1.52292 0
M  V30 22 O -2.78183 1.67032 -1.93001 0
M  V30 23 C -0.794542 2.87764 -1.68127 0
M  V30 24 C 0.655696 2.74167 -1.42899 0
M  V30 25 C 1.18123 1.33879 -1.41513 0
M  V30 26 C 0.9845 3.40906 -0.0881691 0
M  V30 27 C 1.41967 3.51326 -2.48593 0
M  V30 28 C 2.17626 -1.02705 -0.231638 0
M  V30 29 C 2.91496 -0.594696 0.852448 0
M  V30 30 C 4.28079 -0.776007 0.919003 0
M  V30 31 C 4.95861 -1.40059 -0.104338 0
M  V30 32 C 4.23916 -1.83728 -1.19099 0
M  V30 33 C 2.88445 -1.64753 -1.23749 0
M  V30 34 S 6.71186 -1.63514 -0.0232709 0
M  V30 35 O 7.11149 -2.89275 -0.740289 0
M  V30 36 O 7.08606 -1.809 1.41898 0
M  V30 37 N 7.43628 -0.263012 -0.732406 0
M  V30 38 H -4.11404 -3.82817 2.4108 0
M  V30 39 H -5.37453 -3.82073 1.05718 0
M  V30 40 H -3.8539 -4.80572 0.910813 0
M  V30 41 H 0.799347 -3.77812 0.149107 0
M  V30 42 H 0.681989 -3.09558 1.83389 0
M  V30 43 H -2.63844 -0.873517 -1.24917 0
M  V30 44 H -1.41838 0.448245 2.06261 0
M  V30 45 H -2.96662 1.4855 3.70149 0
M  V30 46 H -5.36237 1.6936 3.1451 0
M  V30 47 H -4.62366 -0.139981 -0.602802 0
M  V30 48 H -1.02068 3.27977 -2.71384 0
M  V30 49 H -1.24845 3.65733 -1.00014 0
M  V30 50 H 1.52124 1.05067 -2.45001 0
M  V30 51 H 2.10428 1.33974 -0.800106 0
M  V30 52 H 0.172101 3.25289 0.647562 0
M  V30 53 H 1.89805 2.89392 0.317263 0
M  V30 54 H 1.18988 4.48379 -0.203268 0
M  V30 55 H 2.52544 3.32954 -2.40953 0
M  V30 56 H 1.05648 3.2809 -3.51321 0
M  V30 57 H 1.20571 4.58666 -2.30645 0
M  V30 58 H 2.36713 -0.101904 1.65622 0
M  V30 59 H 4.85197 -0.435923 1.76871 0
M  V30 60 H 4.78271 -2.32636 -1.98854 0
M  V30 61 H 2.33634 -2.0069 -2.1179 0
M  V30 62 H 7.84495 0.353571 -0.00896891 0
M  V30 63 H 6.75824 0.294986 -1.29274 0
M  V30 END ATOM
M  V30 BEGIN BOND
M  V30 1 1 1 2
M  V30 2 1 2 3
M  V30 3 2 3 4
M  V30 4 1 3 5
M  V30 5 2 5 6
M  V30 6 1 6 7
M  V30 7 1 6 8
M  V30 8 1 8 9
M  V30 9 2 9 10
M  V30 10 1 10 11
M  V30 11 1 11 12
M  V30 12 2 12 13
M  V30 13 1 13 14
M  V30 14 2 14 15
M  V30 15 1 15 16
M  V30 16 2 16 17
M  V30 17 1 16 18
M  V30 18 2 18 19
M  V30 19 1 18 20
M  V30 20 1 10 21
M  V30 21 2 21 22
M  V30 22 1 21 23
M  V30 23 1 23 24
M  V30 24 1 24 25
M  V30 25 1 24 26
M  V30 26 1 24 27
M  V30 27 1 8 28
M  V30 28 2 28 29
M  V30 29 1 29 30
M  V30 30 2 30 31
M  V30 31 1 31 32
M  V30 32 2 32 33
M  V30 33 1 31 34
M  V30 34 2 34 35
M  V30 35 2 34 36
M  V30 36 1 34 37
M  V30 37 1 11 5
M  V30 38 1 17 12
M  V30 39 1 33 28
M  V30 40 1 25 9
M  V30 41 1 1 38
M  V30 42 1 1 39
M  V30 43 1 1 40
M  V30 44 1 7 41
M  V30 45 1 7 42
M  V30 46 1 11 43
M  V30 47 1 13 44
M  V30 48 1 14 45
M  V30 49 1 15 46
M  V30 50 1 17 47
M  V30 51 1 23 48
M  V30 52 1 23 49
M  V30 53 1 25 50
M  V30 54 1 25 51
M  V30 55 1 26 52
M  V30 56 1 26 53
M  V30 57 1 26 54
M  V30 58 1 27 55
M  V30 59 1 27 56
M  V30 60 1 27 57
M  V30 61 1 29 58
M  V30 62 1 30 59
M  V30 63 1 32 60
M  V30 64 1 33 61
M  V30 65 1 37 62
M  V30 66 1 37 63
M  V30 END BOND
M  V30 END CTAB
M  END
