
     RDKit          3D

  0  0  0  0  0  0  0  0  0  0999 V3000
M  V30 BEGIN CTAB
M  V30 COUNTS 39 40 0 0 0
M  V30 BEGIN ATOM
M  V30 1 N -6.27737 2.00325 -0.788712 0
M  V30 2 C -5.04594 1.328 -0.527613 0
M  V30 3 C -4.11786 1.90611 0.320493 0
M  V30 4 C -2.90106 1.29517 0.609642 0
M  V30 5 C -2.59888 0.0801759 0.0423079 0
M  V30 6 C -3.50354 -0.508822 -0.798918 0
M  V30 7 C -4.72562 0.111505 -1.08546 0
M  V30 8 N -1.32461 -0.565692 0.333703 0
M  V30 9 C -0.158898 0.0634936 -0.0294168 0
M  V30 10 O -0.28043 1.19886 -0.620663 0
M  V30 11 N 1.14375 -0.380573 0.16516 0
M  V30 12 C 2.26516 0.385519 -0.282449 0
M  V30 13 O 1.99729 1.48237 -0.866099 0
M  V30 14 C 3.65688 -0.0278745 -0.10204 0
M  V30 15 C 4.0289 -1.18801 0.528626 0
M  V30 16 C 5.35858 -1.54562 0.688495 0
M  V30 17 C 6.3423 -0.728785 0.208964 0
M  V30 18 C 6.01674 0.447725 -0.431894 0
M  V30 19 C 4.68842 0.781011 -0.578254 0
M  V30 20 N 4.3765 1.98127 -1.23574 0
M  V30 21 C -1.38443 -1.812 0.965277 0
M  V30 22 O -0.366785 -2.45227 1.27022 0
M  V30 23 C -2.68158 -2.47629 1.32333 0
M  V30 24 H -6.24415 3.02892 -0.985983 0
M  V30 25 H -7.19815 1.55342 -0.797189 0
M  V30 26 H -4.33014 2.86015 0.779105 0
M  V30 27 H -2.16277 1.72381 1.26529 0
M  V30 28 H -3.25253 -1.46957 -1.23902 0
M  V30 29 H -5.4102 -0.378734 -1.75032 0
M  V30 30 H 1.43678 -1.27697 0.633872 0
M  V30 31 H 3.29687 -1.85889 0.920547 0
M  V30 32 H 5.65593 -2.45596 1.18286 0
M  V30 33 H 7.3683 -0.992702 0.326906 0
M  V30 34 H 6.82065 1.07045 -0.798524 0
M  V30 35 H 4.42686 2.01722 -2.26812 0
M  V30 36 H 4.10092 2.81284 -0.676325 0
M  V30 37 H -3.02102 -3.14241 0.502399 0
M  V30 38 H -3.46457 -1.74597 1.59341 0
M  V30 39 H -2.53028 -3.1241 2.20214 0
M  V30 END ATOM
M  V30 BEGIN BOND
M  V30 1 1 1 2
M  V30 2 2 2 3
M  V30 3 1 3 4
M  V30 4 2 4 5
M  V30 5 1 5 6
M  V30 6 2 6 7
M  V30 7 1 5 8
M  V30 8 1 8 9
M  V30 9 2 9 10
M  V30 10 1 9 11
M  V30 11 1 11 12
M  V30 12 2 12 13
M  V30 13 1 12 14
M  V30 14 2 14 15
M  V30 15 1 15 16
M  V30 16 2 16 17
M  V30 17 1 17 18
M  V30 18 2 18 19
M  V30 19 1 19 20
M  V30 20 1 8 21
M  V30 21 2 21 22
M  V30 22 1 21 23
M  V30 23 1 7 2
M  V30 24 1 19 14
M  V30 25 1 1 24
M  V30 26 1 1 25
M  V30 27 1 3 26
M  V30 28 1 4 27
M  V30 29 1 6 28
M  V30 30 1 7 29
M  V30 31 1 11 30
M  V30 32 1 15 31
M  V30 33 1 16 32
M  V30 34 1 17 33
M  V30 35 1 18 34
M  V30 36 1 20 35
M  V30 37 1 20 36
M  V30 38 1 23 37
M  V30 39 1 23 38
M  V30 40 1 23 39
M  V30 END BOND
M  V30 END CTAB
M  END
