
     RDKit          3D

  0  0  0  0  0  0  0  0  0  0999 V3000
M  V30 BEGIN CTAB
M  V30 COUNTS 23 23 0 0 0
M  V30 BEGIN ATOM
M  V30 1 C -3.71868 0.477856 -0.544986 0
M  V30 2 C -2.86666 -0.58916 0.0580281 0
M  V30 3 O -1.48193 -0.275371 0.0216462 0
M  V30 4 C -0.573067 -1.1598 0.539001 0
M  V30 5 O -1.00523 -2.23213 1.03401 0
M  V30 6 C 0.879553 -0.899046 0.534806 0
M  V30 7 N 1.71895 -1.79102 1.04996 0
M  V30 8 C 3.0374 -1.59434 1.06604 0
M  V30 9 N 3.51547 -0.453481 0.540948 0
M  V30 10 C 2.73675 0.501001 -9.34141e-06 0
M  V30 11 N 3.25542 1.69772 -0.549337 0
M  V30 12 C 1.37024 0.262042 0.000763006 0
M  V30 13 N 0.441715 1.19855 -0.544199 0
M  V30 14 H -4.35091 0.0680817 -1.36098 0
M  V30 15 H -4.45094 0.839938 0.23456 0
M  V30 16 H -3.11532 1.30908 -0.959326 0
M  V30 17 H -3.13565 -0.762943 1.12359 0
M  V30 18 H -3.0737 -1.55695 -0.459823 0
M  V30 19 H 3.66075 -2.36182 1.50078 0
M  V30 20 H 3.1086 1.96227 -1.53934 0
M  V30 21 H 3.80088 2.32862 0.0647017 0
M  V30 22 H 0.282592 1.13867 -1.57325 0
M  V30 23 H -0.0362426 1.89224 0.0738837 0
M  V30 END ATOM
M  V30 BEGIN BOND
M  V30 1 1 1 2
M  V30 2 1 2 3
M  V30 3 1 3 4
M  V30 4 2 4 5
M  V30 5 1 4 6
M  V30 6 2 6 7
M  V30 7 1 7 8
M  V30 8 2 8 9
M  V30 9 1 9 10
M  V30 10 1 10 11
M  V30 11 2 10 12
M  V30 12 1 12 13
M  V30 13 1 12 6
M  V30 14 1 1 14
M  V30 15 1 1 15
M  V30 16 1 1 16
M  V30 17 1 2 17
M  V30 18 1 2 18
M  V30 19 1 8 19
M  V30 20 1 11 20
M  V30 21 1 11 21
M  V30 22 1 13 22
M  V30 23 1 13 23
M  V30 END BOND
M  V30 END CTAB
M  END
