
     RDKit          3D

  0  0  0  0  0  0  0  0  0  0999 V3000
M  V30 BEGIN CTAB
M  V30 COUNTS 65 68 0 0 0
M  V30 BEGIN ATOM
M  V30 1 N 9.98514 -1.95133 -0.0544764 0
M  V30 2 C 8.76636 -1.20916 0.0825494 0
M  V30 3 N 8.48346 -0.540754 1.21217 0
M  V30 4 C 7.35003 0.150568 1.34222 0
M  V30 5 O 7.14145 0.757789 2.42826 0
M  V30 6 N 6.45543 0.186726 0.317515 0
M  V30 7 C 6.68571 -0.462785 -0.835282 0
M  V30 8 C 7.85737 -1.17153 -0.956676 0
M  V30 9 C 5.25533 0.941596 0.506182 0 CFG=1
M  V30 10 C 4.97182 1.91544 -0.614369 0
M  V30 11 C 3.47396 2.11602 -0.482741 0 CFG=2
M  V30 12 O 3.1913 3.3622 0.0611022 0
M  V30 13 C 3.09399 1.07237 0.53209 0 CFG=1
M  V30 14 C 1.73467 0.472019 0.253607 0
M  V30 15 O 1.72559 -0.0702885 -1.03781 0
M  V30 16 P 0.217282 -0.753479 -1.38663 0
M  V30 17 O 0.105286 -2.18107 -0.453614 0
M  V30 18 O 0.167325 -1.04073 -2.84666 0
M  V30 19 O -0.962119 0.318537 -0.868005 0
M  V30 20 C -2.16857 -0.276942 -0.572594 0 CFG=1
M  V30 21 C -2.58678 -0.111117 0.858031 0
M  V30 22 C -3.64783 0.972862 0.731335 0 CFG=1
M  V30 23 O -4.24434 0.7966 -0.493358 0
M  V30 24 C -3.32427 0.22611 -1.35072 0 CFG=2
M  V30 25 C -3.95752 -0.895082 -2.14569 0
M  V30 26 O -5.02682 -0.441557 -2.91356 0
M  V30 27 P -5.74687 -1.65481 -3.80262 0
M  V30 28 O -5.33286 -1.57826 -5.44526 0
M  V30 29 O -5.38126 -3.18419 -3.16791 0
M  V30 30 O -7.25182 -1.49044 -3.71886 0
M  V30 31 N -4.6308 0.883411 1.80349 0
M  V30 32 C -5.80639 0.29748 1.59237 0
M  V30 33 C -6.73788 0.206568 2.58903 0
M  V30 34 C -6.43456 0.739938 3.83501 0
M  V30 35 N -7.39362 0.651329 4.87671 0
M  V30 36 N -5.2328 1.32092 3.99478 0
M  V30 37 C -4.33396 1.39858 3.00163 0
M  V30 38 O -3.19763 1.96487 3.20546 0
M  V30 39 O 4.10626 0.119717 0.447081 0
M  V30 40 H 10.883 -1.45431 -0.232529 0
M  V30 41 H 10.0173 -2.98842 0.0170674 0
M  V30 42 H 5.95387 -0.409692 -1.62141 0
M  V30 43 H 8.04402 -1.6911 -1.8759 0
M  V30 44 H 5.26992 1.52198 1.44183 0
M  V30 45 H 5.18479 1.47937 -1.60433 0
M  V30 46 H 5.51568 2.88056 -0.468163 0
M  V30 47 H 2.96571 1.95271 -1.45463 0
M  V30 48 H 3.45973 3.30855 1.03219 0
M  V30 49 H 3.1069 1.45729 1.57567 0
M  V30 50 H 1.52919 -0.29191 1.01901 0
M  V30 51 H 0.962966 1.26184 0.301191 0
M  V30 52 H -0.329475 -2.91125 -0.971699 0
M  V30 53 H -2.03869 -1.36607 -0.763737 0
M  V30 54 H -3.00331 -1.05299 1.23837 0
M  V30 55 H -1.77188 0.222298 1.52766 0
M  V30 56 H -3.19995 1.98547 0.799769 0
M  V30 57 H -3.04719 1.01135 -2.10434 0
M  V30 58 H -4.35157 -1.6957 -1.48376 0
M  V30 59 H -3.1466 -1.33397 -2.76762 0
M  V30 60 H -4.36344 -1.37972 -5.48392 0
M  V30 61 H -5.70918 -3.17209 -2.22405 0
M  V30 62 H -6.08225 -0.134646 0.624276 0
M  V30 63 H -7.69914 -0.265349 2.43885 0
M  V30 64 H -8.11139 -0.100465 4.84484 0
M  V30 65 H -7.40815 1.30815 5.67161 0
M  V30 END ATOM
M  V30 BEGIN BOND
M  V30 1 1 1 2
M  V30 2 2 2 3
M  V30 3 1 3 4
M  V30 4 2 4 5
M  V30 5 1 4 6
M  V30 6 1 6 7
M  V30 7 2 7 8
M  V30 8 1 6 9
M  V30 9 1 9 10
M  V30 10 1 10 11
M  V30 11 1 11 12
M  V30 12 1 11 13
M  V30 13 1 13 14
M  V30 14 1 14 15
M  V30 15 1 15 16
M  V30 16 1 16 17
M  V30 17 2 16 18
M  V30 18 1 16 19
M  V30 19 1 19 20
M  V30 20 1 20 21
M  V30 21 1 21 22
M  V30 22 1 22 23
M  V30 23 1 23 24
M  V30 24 1 24 25
M  V30 25 1 25 26
M  V30 26 1 26 27
M  V30 27 1 27 28
M  V30 28 1 27 29
M  V30 29 2 27 30
M  V30 30 1 22 31
M  V30 31 1 31 32
M  V30 32 2 32 33
M  V30 33 1 33 34
M  V30 34 1 34 35
M  V30 35 2 34 36
M  V30 36 1 36 37
M  V30 37 2 37 38
M  V30 38 1 13 39
M  V30 39 1 8 2
M  V30 40 1 39 9
M  V30 41 1 24 20
M  V30 42 1 37 31
M  V30 43 1 1 40
M  V30 44 1 1 41
M  V30 45 1 7 42
M  V30 46 1 8 43
M  V30 47 1 9 44 CFG=1
M  V30 48 1 10 45
M  V30 49 1 10 46
M  V30 50 1 11 47 CFG=3
M  V30 51 1 12 48
M  V30 52 1 13 49 CFG=1
M  V30 53 1 14 50
M  V30 54 1 14 51
M  V30 55 1 17 52
M  V30 56 1 20 53 CFG=3
M  V30 57 1 21 54
M  V30 58 1 21 55
M  V30 59 1 22 56 CFG=3
M  V30 60 1 24 57 CFG=3
M  V30 61 1 25 58
M  V30 62 1 25 59
M  V30 63 1 28 60
M  V30 64 1 29 61
M  V30 65 1 32 62
M  V30 66 1 33 63
M  V30 67 1 35 64
M  V30 68 1 35 65
M  V30 END BOND
M  V30 END CTAB
M  END
