
     RDKit          3D

  0  0  0  0  0  0  0  0  0  0999 V3000
M  V30 BEGIN CTAB
M  V30 COUNTS 30 31 0 0 0
M  V30 BEGIN ATOM
M  V30 1 N 4.52518 0.736583 -0.494068 0
M  V30 2 C 3.11449 0.539906 -0.353809 0
M  V30 3 C 2.55051 -0.71648 -0.318694 0
M  V30 4 N 3.41993 -1.84068 -0.427241 0
M  V30 5 C 1.17413 -0.901902 -0.181788 0
M  V30 6 C 0.320648 0.173407 -0.0756447 0
M  V30 7 C 0.889244 1.42859 -0.111211 0
M  V30 8 C 2.25486 1.61167 -0.247145 0
M  V30 9 N -1.09546 0.0323771 0.0714808 0
M  V30 10 C -1.71742 -1.26588 0.253036 0
M  V30 11 C -2.94686 -1.01206 1.13957 0
M  V30 12 N -3.90992 -0.330582 0.331641 0
M  V30 13 C -3.34619 0.74952 -0.441692 0
M  V30 14 C -1.9851 1.17459 0.0414109 0
M  V30 15 H 5.14386 1.02381 0.284905 0
M  V30 16 H 4.98515 0.58956 -1.42285 0
M  V30 17 H 4.35519 -1.797 0.0340174 0
M  V30 18 H 3.15688 -2.7032 -0.949187 0
M  V30 19 H 0.761544 -1.91246 -0.159625 0
M  V30 20 H 0.235107 2.29977 -0.0272933 0
M  V30 21 H 2.70678 2.6044 -0.27554 0
M  V30 22 H -2.02084 -1.70946 -0.702097 0
M  V30 23 H -0.999242 -1.91956 0.824722 0
M  V30 24 H -3.30911 -2.013 1.4319 0
M  V30 25 H -2.60887 -0.408274 2.00234 0
M  V30 26 H -4.78029 -0.0792985 0.835014 0
M  V30 27 H -3.25322 0.438569 -1.49608 0
M  V30 28 H -4.02903 1.61695 -0.334074 0
M  V30 29 H -2.00401 1.74185 0.988224 0
M  V30 30 H -1.58795 1.84829 -0.77607 0
M  V30 END ATOM
M  V30 BEGIN BOND
M  V30 1 1 1 2
M  V30 2 2 2 3
M  V30 3 1 3 4
M  V30 4 1 3 5
M  V30 5 2 5 6
M  V30 6 1 6 7
M  V30 7 2 7 8
M  V30 8 1 6 9
M  V30 9 1 9 10
M  V30 10 1 10 11
M  V30 11 1 11 12
M  V30 12 1 12 13
M  V30 13 1 13 14
M  V30 14 1 8 2
M  V30 15 1 14 9
M  V30 16 1 1 15
M  V30 17 1 1 16
M  V30 18 1 4 17
M  V30 19 1 4 18
M  V30 20 1 5 19
M  V30 21 1 7 20
M  V30 22 1 8 21
M  V30 23 1 10 22
M  V30 24 1 10 23
M  V30 25 1 11 24
M  V30 26 1 11 25
M  V30 27 1 12 26
M  V30 28 1 13 27
M  V30 29 1 13 28
M  V30 30 1 14 29
M  V30 31 1 14 30
M  V30 END BOND
M  V30 END CTAB
M  END
