
     RDKit          3D

  0  0  0  0  0  0  0  0  0  0999 V3000
M  V30 BEGIN CTAB
M  V30 COUNTS 21 20 0 0 0
M  V30 BEGIN ATOM
M  V30 1 O -1.97221 -0.854677 1.28777 0
M  V30 2 C -1.55609 0.39027 0.825811 0
M  V30 3 C -2.66004 1.16181 0.156142 0
M  V30 4 F -3.13086 0.454232 -0.920266 0
M  V30 5 F -2.13835 2.35521 -0.281897 0
M  V30 6 F -3.63052 1.40569 1.10895 0
M  V30 7 C -0.428682 0.151078 -0.160097 0
M  V30 8 N 0.628025 -0.530426 0.548233 0
M  V30 9 C 1.85078 -0.917563 -0.0643071 0
M  V30 10 N 2.80911 -0.0779769 -0.0881606 0
M  V30 11 N 2.74126 1.20073 0.447637 0
M  V30 12 N 1.93563 -2.21203 -0.612738 0
M  V30 13 H -2.3681 -1.3888 0.559459 0
M  V30 14 H -1.1924 0.951968 1.70501 0
M  V30 15 H -0.81793 -0.439189 -1.01356 0
M  V30 16 H -0.0545455 1.12216 -0.583622 0
M  V30 17 H 0.555094 -0.785927 1.57858 0
M  V30 18 H 2.10436 1.93751 0.0770735 0
M  V30 19 H 3.34079 1.47305 1.25944 0
M  V30 20 H 2.59259 -2.36666 -1.4082 0
M  V30 21 H 1.39209 -3.03046 -0.285585 0
M  V30 END ATOM
M  V30 BEGIN BOND
M  V30 1 1 1 2
M  V30 2 1 2 3
M  V30 3 1 3 4
M  V30 4 1 3 5
M  V30 5 1 3 6
M  V30 6 1 2 7
M  V30 7 1 7 8
M  V30 8 1 8 9
M  V30 9 2 9 10 CFG=2
M  V30 10 1 10 11
M  V30 11 1 9 12
M  V30 12 1 1 13
M  V30 13 1 2 14
M  V30 14 1 7 15
M  V30 15 1 7 16
M  V30 16 1 8 17
M  V30 17 1 11 18
M  V30 18 1 11 19
M  V30 19 1 12 20
M  V30 20 1 12 21
M  V30 END BOND
M  V30 END CTAB
M  END
