
     RDKit          3D

  0  0  0  0  0  0  0  0  0  0999 V3000
M  V30 BEGIN CTAB
M  V30 COUNTS 39 41 0 0 0
M  V30 BEGIN ATOM
M  V30 1 N -6.33544 1.19774 -0.41778 0
M  V30 2 C -5.04073 1.63937 -0.0160645 0
M  V30 3 C -4.22707 0.615658 0.781821 0
M  V30 4 C -3.00914 1.12173 0.0392385 0
M  V30 5 C -3.95161 1.51773 -1.09069 0
M  V30 6 C -2.02012 0.0939607 -0.317008 0
M  V30 7 C -0.697647 0.309313 -0.0141849 0
M  V30 8 C 0.296003 -0.601624 -0.312476 0
M  V30 9 N 1.63511 -0.298301 0.0359253 0
M  V30 10 C 2.64625 -1.27171 -0.290355 0
M  V30 11 C 3.9725 -0.805123 0.136063 0
M  V30 12 C 5.15189 -1.52258 -0.0404196 0
M  V30 13 N 6.12157 -0.776425 0.470119 0
M  V30 14 N 5.67517 0.360802 0.961737 0
M  V30 15 C 4.3297 0.356867 0.759478 0
M  V30 16 C 6.47493 1.39578 1.58874 0
M  V30 17 N -0.0634977 -1.74072 -0.924445 0
M  V30 18 C -1.35848 -1.96867 -1.22934 0
M  V30 19 N -2.33045 -1.05996 -0.928911 0
M  V30 20 N -1.66938 -3.19505 -1.87686 0
M  V30 21 H -6.67415 1.58712 -1.30636 0
M  V30 22 H -6.55783 0.21674 -0.23162 0
M  V30 23 H -4.99272 2.66634 0.398619 0
M  V30 24 H -4.56168 -0.394871 0.496023 0
M  V30 25 H -4.19729 0.825858 1.86473 0
M  V30 26 H -2.62092 2.01855 0.536485 0
M  V30 27 H -4.11597 0.697794 -1.79718 0
M  V30 28 H -3.65469 2.49824 -1.52382 0
M  V30 29 H -0.444022 1.2556 0.487483 0
M  V30 30 H 1.85544 0.585237 0.501832 0
M  V30 31 H 2.34565 -2.22286 0.209168 0
M  V30 32 H 2.65334 -1.42933 -1.39431 0
M  V30 33 H 5.22367 -2.47619 -0.497698 0
M  V30 34 H 3.69797 1.17105 1.06498 0
M  V30 35 H 7.46145 1.40529 1.05479 0
M  V30 36 H 5.95487 2.35974 1.41763 0
M  V30 37 H 6.58709 1.2116 2.67126 0
M  V30 38 H -1.1034 -4.06504 -1.69631 0
M  V30 39 H -2.45635 -3.27963 -2.54433 0
M  V30 END ATOM
M  V30 BEGIN BOND
M  V30 1 1 1 2
M  V30 2 1 2 3
M  V30 3 1 3 4
M  V30 4 1 4 5
M  V30 5 1 4 6
M  V30 6 2 6 7
M  V30 7 1 7 8
M  V30 8 1 8 9
M  V30 9 1 9 10
M  V30 10 1 10 11
M  V30 11 1 11 12
M  V30 12 2 12 13
M  V30 13 1 13 14
M  V30 14 1 14 15
M  V30 15 1 14 16
M  V30 16 2 8 17
M  V30 17 1 17 18
M  V30 18 2 18 19
M  V30 19 1 18 20
M  V30 20 1 5 2
M  V30 21 1 19 6
M  V30 22 2 15 11
M  V30 23 1 1 21
M  V30 24 1 1 22
M  V30 25 1 2 23
M  V30 26 1 3 24
M  V30 27 1 3 25
M  V30 28 1 4 26
M  V30 29 1 5 27
M  V30 30 1 5 28
M  V30 31 1 7 29
M  V30 32 1 9 30
M  V30 33 1 10 31
M  V30 34 1 10 32
M  V30 35 1 12 33
M  V30 36 1 15 34
M  V30 37 1 16 35
M  V30 38 1 16 36
M  V30 39 1 16 37
M  V30 40 1 20 38
M  V30 41 1 20 39
M  V30 END BOND
M  V30 END CTAB
M  END
