
     RDKit          3D

  0  0  0  0  0  0  0  0  0  0999 V3000
M  V30 BEGIN CTAB
M  V30 COUNTS 37 39 0 0 0
M  V30 BEGIN ATOM
M  V30 1 N 2.18279 -4.44935 -0.273495 0
M  V30 2 N 2.07627 -3.07517 0.0294313 0
M  V30 3 C 1.92337 -2.09981 -0.96241 0
M  V30 4 O 1.89607 -2.44604 -2.19589 0
M  V30 5 C 1.80368 -0.683345 -0.599501 0
M  V30 6 C 0.973718 -0.0116814 0.247053 0
M  V30 7 C 1.35362 1.34897 0.310665 0
M  V30 8 C 0.86268 2.43796 0.999872 0
M  V30 9 C 1.47832 3.66702 0.835738 0
M  V30 10 Cl 0.848449 5.02889 1.71058 0
M  V30 11 C 2.56451 3.81267 0.000234866 0
M  V30 12 C 3.0384 2.71293 -0.678299 0
M  V30 13 C 2.43034 1.45753 -0.527397 0
M  V30 14 N 2.69332 0.268474 -1.06071 0
M  V30 15 S -0.426524 -0.600686 1.06959 0
M  V30 16 O -0.404206 -2.05856 1.32418 0
M  V30 17 O -0.466819 0.0664181 2.43785 0
M  V30 18 C -1.89727 -0.250087 0.161586 0
M  V30 19 C -3.09091 -0.668746 0.709969 0
M  V30 20 N -3.10344 -1.35256 1.95736 0
M  V30 21 C -4.28332 -0.412399 0.0247892 0
M  V30 22 C -4.29292 0.250944 -1.18943 0
M  V30 23 C -3.07388 0.649685 -1.69679 0
M  V30 24 Cl -3.06029 1.48801 -3.22661 0
M  V30 25 C -1.87478 0.41328 -1.04683 0
M  V30 26 H 1.71911 -5.04908 0.425039 0
M  V30 27 H 3.1919 -4.72353 -0.401432 0
M  V30 28 H 2.15403 -2.81809 1.02634 0
M  V30 29 H 0.00822247 2.32418 1.65504 0
M  V30 30 H 3.05599 4.76467 -0.138627 0
M  V30 31 H 3.89099 2.78313 -1.34608 0
M  V30 32 H 3.46009 0.0654772 -1.73458 0
M  V30 33 H -2.7349 -0.950551 2.84635 0
M  V30 34 H -3.50133 -2.31547 2.00573 0
M  V30 35 H -5.23665 -0.737103 0.445099 0
M  V30 36 H -5.23613 0.436526 -1.69997 0
M  V30 37 H -0.922507 0.72547 -1.44445 0
M  V30 END ATOM
M  V30 BEGIN BOND
M  V30 1 1 1 2
M  V30 2 1 2 3
M  V30 3 2 3 4
M  V30 4 1 3 5
M  V30 5 2 5 6
M  V30 6 1 6 7
M  V30 7 2 7 8
M  V30 8 1 8 9
M  V30 9 1 9 10
M  V30 10 2 9 11
M  V30 11 1 11 12
M  V30 12 2 12 13
M  V30 13 1 13 14
M  V30 14 1 6 15
M  V30 15 2 15 16
M  V30 16 2 15 17
M  V30 17 1 15 18
M  V30 18 2 18 19
M  V30 19 1 19 20
M  V30 20 1 19 21
M  V30 21 2 21 22
M  V30 22 1 22 23
M  V30 23 1 23 24
M  V30 24 2 23 25
M  V30 25 1 14 5
M  V30 26 1 25 18
M  V30 27 1 13 7
M  V30 28 1 1 26
M  V30 29 1 1 27
M  V30 30 1 2 28
M  V30 31 1 8 29
M  V30 32 1 11 30
M  V30 33 1 12 31
M  V30 34 1 14 32
M  V30 35 1 20 33
M  V30 36 1 20 34
M  V30 37 1 21 35
M  V30 38 1 22 36
M  V30 39 1 25 37
M  V30 END BOND
M  V30 END CTAB
M  END
