
     RDKit          3D

  0  0  0  0  0  0  0  0  0  0999 V3000
M  V30 BEGIN CTAB
M  V30 COUNTS 33 34 0 0 0
M  V30 BEGIN ATOM
M  V30 1 N 4.88722 -0.221079 1.21001 0
M  V30 2 C 3.48414 -0.476537 1.03729 0
M  V30 3 N 2.91385 -1.58774 1.48828 0
M  V30 4 C 1.60516 -1.84013 1.33447 0
M  V30 5 N 0.855799 -0.930413 0.70097 0
M  V30 6 C 1.34593 0.206927 0.219048 0
M  V30 7 N 0.569869 1.18952 -0.443885 0
M  V30 8 C -0.818574 1.01842 -0.671738 0 CFG=2
M  V30 9 O -1.53192 0.724118 0.489177 0
M  V30 10 C -2.76686 0.248274 0.0995706 0 CFG=2
M  V30 11 C -3.31082 -0.832039 0.994126 0
M  V30 12 O -2.52283 -1.94971 1.07438 0
M  V30 13 C -2.71646 -0.131834 -1.34498 0 CFG=1
M  V30 14 O -3.23523 0.880974 -2.14307 0
M  V30 15 C -1.19668 -0.113959 -1.58709 0 CFG=1
M  V30 16 O -0.924825 0.171268 -2.92199 0
M  V30 17 C 2.71667 0.451929 0.390157 0
M  V30 18 N 3.29653 1.6609 -0.109341 0
M  V30 19 H 5.56832 -0.981495 1.05921 0
M  V30 20 H 5.21653 0.712773 1.48237 0
M  V30 21 H 1.16886 -2.77142 1.72149 0
M  V30 22 H 1.02206 2.07578 -0.782298 0
M  V30 23 H -1.28051 1.95845 -1.12797 0
M  V30 24 H -3.48317 1.11644 0.195906 0
M  V30 25 H -4.28997 -1.14419 0.554636 0
M  V30 26 H -3.55687 -0.375644 1.97307 0
M  V30 27 H -1.85189 -1.92348 1.8011 0
M  V30 28 H -3.13697 -1.12635 -1.56709 0
M  V30 29 H -3.91158 1.41626 -1.67955 0
M  V30 30 H -0.738868 -1.03693 -1.2498 0
M  V30 31 H -0.370166 -0.567765 -3.27768 0
M  V30 32 H 3.19478 2.5172 0.462657 0
M  V30 33 H 3.79845 1.66149 -1.01583 0
M  V30 END ATOM
M  V30 BEGIN BOND
M  V30 1 1 1 2
M  V30 2 2 2 3
M  V30 3 1 3 4
M  V30 4 2 4 5
M  V30 5 1 5 6
M  V30 6 1 6 7
M  V30 7 1 7 8
M  V30 8 1 8 9
M  V30 9 1 9 10
M  V30 10 1 10 11
M  V30 11 1 11 12
M  V30 12 1 10 13
M  V30 13 1 13 14
M  V30 14 1 13 15
M  V30 15 1 15 16
M  V30 16 2 6 17
M  V30 17 1 17 18
M  V30 18 1 17 2
M  V30 19 1 15 8
M  V30 20 1 1 19
M  V30 21 1 1 20
M  V30 22 1 4 21
M  V30 23 1 7 22
M  V30 24 1 8 23 CFG=3
M  V30 25 1 10 24 CFG=3
M  V30 26 1 11 25
M  V30 27 1 11 26
M  V30 28 1 12 27
M  V30 29 1 13 28 CFG=1
M  V30 30 1 14 29
M  V30 31 1 15 30 CFG=1
M  V30 32 1 16 31
M  V30 33 1 18 32
M  V30 34 1 18 33
M  V30 END BOND
M  V30 END CTAB
M  END
