
     RDKit          3D

  0  0  0  0  0  0  0  0  0  0999 V3000
M  V30 BEGIN CTAB
M  V30 COUNTS 29 30 0 0 0
M  V30 BEGIN ATOM
M  V30 1 N -0.68752 -0.789595 -1.32686 0
M  V30 2 C -0.848484 -0.425351 0.0709762 0
M  V30 3 C -1.91339 -1.27894 0.699844 0
M  V30 4 C -3.19658 -1.32236 -0.0426186 0
M  V30 5 S -3.61993 0.401175 -0.501986 0
M  V30 6 C -2.48537 1.44096 0.487927 0
M  V30 7 C -1.09251 1.03507 0.149269 0
M  V30 8 C 0.430805 -0.72576 0.853656 0
M  V30 9 C 1.58051 0.0333224 0.310357 0
M  V30 10 N 1.67222 0.892352 -0.700509 0
M  V30 11 N 2.91583 1.31867 -0.809834 0
M  V30 12 C 3.65702 0.732789 0.142816 0
M  V30 13 N 2.81693 -0.061068 0.829636 0
M  V30 14 N 5.04577 0.882523 0.416147 0
M  V30 15 H -0.461988 0.0666625 -1.918 0
M  V30 16 H -1.59079 -1.14086 -1.7164 0
M  V30 17 H -2.10895 -0.887339 1.7223 0
M  V30 18 H -1.49545 -2.29299 0.823812 0
M  V30 19 H -3.99062 -1.67074 0.681533 0
M  V30 20 H -3.24474 -2.00103 -0.890572 0
M  V30 21 H -2.64308 2.47804 0.143704 0
M  V30 22 H -2.66527 1.31846 1.57079 0
M  V30 23 H -0.41342 1.54087 0.896733 0
M  V30 24 H -0.833457 1.54273 -0.826385 0
M  V30 25 H 0.680473 -1.80355 0.754731 0
M  V30 26 H 0.261332 -0.528618 1.9141 0
M  V30 27 H 3.10717 -0.663871 1.65517 0
M  V30 28 H 5.79389 0.567341 -0.216759 0
M  V30 29 H 5.32957 1.34109 1.31545 0
M  V30 END ATOM
M  V30 BEGIN BOND
M  V30 1 1 1 2
M  V30 2 1 2 3
M  V30 3 1 3 4
M  V30 4 1 4 5
M  V30 5 1 5 6
M  V30 6 1 6 7
M  V30 7 1 2 8
M  V30 8 1 8 9
M  V30 9 2 9 10
M  V30 10 1 10 11
M  V30 11 2 11 12
M  V30 12 1 12 13
M  V30 13 1 12 14
M  V30 14 1 7 2
M  V30 15 1 13 9
M  V30 16 1 1 15
M  V30 17 1 1 16
M  V30 18 1 3 17
M  V30 19 1 3 18
M  V30 20 1 4 19
M  V30 21 1 4 20
M  V30 22 1 6 21
M  V30 23 1 6 22
M  V30 24 1 7 23
M  V30 25 1 7 24
M  V30 26 1 8 25
M  V30 27 1 8 26
M  V30 28 1 13 27
M  V30 29 1 14 28
M  V30 30 1 14 29
M  V30 END BOND
M  V30 END CTAB
M  END
