
     RDKit          3D

  0  0  0  0  0  0  0  0  0  0999 V3000
M  V30 BEGIN CTAB
M  V30 COUNTS 18 19 0 0 0
M  V30 BEGIN ATOM
M  V30 1 N 1.04361 0.0748512 1.61447 0
M  V30 2 N 1.06455 0.0744192 0.22139 0
M  V30 3 C 0.0233416 0.00206496 -0.623543 0
M  V30 4 N 0.492841 0.0325306 -1.86514 0
M  V30 5 N 1.81756 0.123256 -1.7931 0
M  V30 6 C 2.21574 0.152208 -0.508519 0
M  V30 7 N 3.5248 0.242476 0.0285455 0
M  V30 8 C -1.37983 -0.0932941 -0.167217 0
M  V30 9 C -2.50296 -0.171082 -0.953824 0
M  V30 10 C -3.68243 -0.250903 -0.293433 0
M  V30 11 N -3.6502 -0.247036 1.03128 0
M  V30 12 S -2.01931 -0.135044 1.40588 0
M  V30 13 H 0.885821 -0.787987 2.18625 0
M  V30 14 H 1.18732 0.955679 2.18164 0
M  V30 15 H 3.80722 0.913942 0.771354 0
M  V30 16 H 4.25556 -0.400588 -0.338431 0
M  V30 17 H -2.4258 -0.167222 -2.06843 0
M  V30 18 H -4.65783 -0.318271 -0.829167 0
M  V30 END ATOM
M  V30 BEGIN BOND
M  V30 1 1 1 2
M  V30 2 1 2 3
M  V30 3 2 3 4
M  V30 4 1 4 5
M  V30 5 2 5 6
M  V30 6 1 6 7
M  V30 7 1 3 8
M  V30 8 2 8 9
M  V30 9 1 9 10
M  V30 10 2 10 11
M  V30 11 1 11 12
M  V30 12 1 6 2
M  V30 13 1 12 8
M  V30 14 1 1 13
M  V30 15 1 1 14
M  V30 16 1 7 15
M  V30 17 1 7 16
M  V30 18 1 9 17
M  V30 19 1 10 18
M  V30 END BOND
M  V30 END CTAB
M  END
