
     RDKit          3D

  0  0  0  0  0  0  0  0  0  0999 V3000
M  V30 BEGIN CTAB
M  V30 COUNTS 24 24 0 0 0
M  V30 BEGIN ATOM
M  V30 1 N 0.0799231 3.06395 0.975287 0
M  V30 2 C 0.291757 2.02741 -0.0161252 0
M  V30 3 C -0.106435 0.683726 0.564546 0
M  V30 4 N 0.0632611 -0.401386 -0.328947 0
M  V30 5 S 1.65405 -1.03098 -0.137194 0
M  V30 6 O 1.63974 -2.52278 -0.399204 0
M  V30 7 O 2.06751 -0.797594 1.28636 0
M  V30 8 N 2.79263 -0.25683 -1.16905 0
M  V30 9 C -0.847335 -1.48437 -0.244056 0
M  V30 10 C -2.17668 -1.37249 0.40126 0
M  V30 11 C -2.0622 -1.5989 -1.0806 0
M  V30 12 H -0.95764 3.14673 1.16493 0
M  V30 13 H 0.5292 3.95383 0.74304 0
M  V30 14 H 1.37511 2.05285 -0.278252 0
M  V30 15 H -0.253473 2.21682 -0.960193 0
M  V30 16 H -1.1207 0.805708 0.993551 0
M  V30 17 H 0.556963 0.522581 1.44174 0
M  V30 18 H 3.32695 0.465401 -0.63461 0
M  V30 19 H 3.49385 -0.944593 -1.54718 0
M  V30 20 H -0.352854 -2.47021 -0.0756052 0
M  V30 21 H -2.52887 -2.22318 1.05068 0
M  V30 22 H -2.67819 -0.442076 0.658328 0
M  V30 23 H -2.36463 -0.79716 -1.7822 0
M  V30 24 H -2.42193 -2.59647 -1.40412 0
M  V30 END ATOM
M  V30 BEGIN BOND
M  V30 1 1 1 2
M  V30 2 1 2 3
M  V30 3 1 3 4
M  V30 4 1 4 5
M  V30 5 2 5 6
M  V30 6 2 5 7
M  V30 7 1 5 8
M  V30 8 1 4 9
M  V30 9 1 9 10
M  V30 10 1 10 11
M  V30 11 1 11 9
M  V30 12 1 1 12
M  V30 13 1 1 13
M  V30 14 1 2 14
M  V30 15 1 2 15
M  V30 16 1 3 16
M  V30 17 1 3 17
M  V30 18 1 8 18
M  V30 19 1 8 19
M  V30 20 1 9 20
M  V30 21 1 10 21
M  V30 22 1 10 22
M  V30 23 1 11 23
M  V30 24 1 11 24
M  V30 END BOND
M  V30 END CTAB
M  END
