
     RDKit          3D

  0  0  0  0  0  0  0  0  0  0999 V3000
M  V30 BEGIN CTAB
M  V30 COUNTS 31 34 0 0 0
M  V30 BEGIN ATOM
M  V30 1 N 6.82181 -1.29075 0.87123 0
M  V30 2 C 5.52418 -0.831275 0.422512 0
M  V30 3 N 4.89614 0.281813 0.744307 0
M  V30 4 C 3.71598 0.537598 0.238104 0
M  V30 5 C 2.93908 1.6802 0.494367 0
M  V30 6 C 1.72943 1.82841 -0.0934547 0
M  V30 7 C 1.16182 0.921684 -0.960031 0
M  V30 8 O -0.0706698 1.07426 -1.55799 0
M  V30 9 C -1.18748 0.584944 -0.916294 0
M  V30 10 C -1.15552 -0.0510462 0.291078 0
M  V30 11 C -2.23086 -0.543926 0.949928 0
M  V30 12 C -3.51746 -0.412332 0.378007 0
M  V30 13 N -4.64942 -0.835577 0.891278 0
M  V30 14 C -5.77969 -0.644241 0.246027 0
M  V30 15 N -7.08634 -1.04525 0.673361 0
M  V30 16 S -5.26078 0.171747 -1.16213 0
M  V30 17 C -3.57911 0.221372 -0.832523 0
M  V30 18 C -2.44291 0.722115 -1.49089 0
M  V30 19 C 1.92969 -0.213725 -1.217 0
M  V30 20 C 3.18602 -0.385928 -0.617552 0
M  V30 21 S 4.41676 -1.57235 -0.646158 0
M  V30 22 H 6.96444 -2.2889 1.10367 0
M  V30 23 H 7.58756 -0.585725 0.947398 0
M  V30 24 H 3.29869 2.46958 1.17343 0
M  V30 25 H 1.10744 2.71895 0.0970189 0
M  V30 26 H -0.159919 -0.159722 0.746535 0
M  V30 27 H -2.08732 -1.02824 1.89939 0
M  V30 28 H -7.89906 -0.510137 0.317569 0
M  V30 29 H -7.16376 -1.84325 1.31211 0
M  V30 30 H -2.61859 1.19562 -2.42804 0
M  V30 31 H 1.60986 -1.00551 -1.87525 0
M  V30 END ATOM
M  V30 BEGIN BOND
M  V30 1 1 1 2
M  V30 2 2 2 3
M  V30 3 1 3 4
M  V30 4 2 4 5
M  V30 5 1 5 6
M  V30 6 2 6 7
M  V30 7 1 7 8
M  V30 8 1 8 9
M  V30 9 2 9 10
M  V30 10 1 10 11
M  V30 11 2 11 12
M  V30 12 1 12 13
M  V30 13 2 13 14
M  V30 14 1 14 15
M  V30 15 1 14 16
M  V30 16 1 16 17
M  V30 17 2 17 18
M  V30 18 1 7 19
M  V30 19 2 19 20
M  V30 20 1 20 21
M  V30 21 1 21 2
M  V30 22 1 20 4
M  V30 23 1 18 9
M  V30 24 1 17 12
M  V30 25 1 1 22
M  V30 26 1 1 23
M  V30 27 1 5 24
M  V30 28 1 6 25
M  V30 29 1 10 26
M  V30 30 1 11 27
M  V30 31 1 15 28
M  V30 32 1 15 29
M  V30 33 1 18 30
M  V30 34 1 19 31
M  V30 END BOND
M  V30 END CTAB
M  END
