
     RDKit          3D

  0  0  0  0  0  0  0  0  0  0999 V3000
M  V30 BEGIN CTAB
M  V30 COUNTS 42 45 0 0 0
M  V30 BEGIN ATOM
M  V30 1 O 1.06764 1.59354 0.840065 0
M  V30 2 C 0.147347 0.749689 0.831127 0
M  V30 3 C -1.20823 1.13941 1.29229 0
M  V30 4 N -2.23023 0.8951 0.324322 0
M  V30 5 N -2.74153 -0.386567 0.274166 0
M  V30 6 C -3.64196 -0.442178 -0.682159 0
M  V30 7 N -3.69576 0.764682 -1.21704 0
M  V30 8 C -2.80148 1.63417 -0.587319 0
M  V30 9 C -2.7067 3.01634 -0.99899 0
M  V30 10 N -3.51712 3.49404 -2.04082 0
M  V30 11 O -3.2671 4.73662 -2.22552 0
M  V30 12 N -2.38568 5.18742 -1.44492 0
M  V30 13 C -2.01295 4.09963 -0.649738 0
M  V30 14 N -1.03794 4.22615 0.35597 0
M  V30 15 C -4.43349 -1.62795 -1.07855 0
M  V30 16 N -5.34432 -1.6522 -2.05511 0
M  V30 17 O -5.83633 -2.83554 -2.1297 0
M  V30 18 N -5.29148 -3.59419 -1.24553 0
M  V30 19 C -4.37812 -2.87551 -0.535031 0
M  V30 20 N -3.57357 -3.36484 0.519818 0
M  V30 21 N 0.426883 -0.58949 0.373729 0
M  V30 22 N 1.70304 -0.955996 -0.0504856 0
M  V30 23 C 2.69027 -0.705918 0.713566 0
M  V30 24 C 4.08846 -1.01597 0.436794 0
M  V30 25 C 5.07499 -0.684751 1.34999 0
M  V30 26 C 6.41657 -0.975343 1.09923 0
M  V30 27 C 6.8122 -1.6 -0.0610776 0
M  V30 28 C 5.83694 -1.93445 -0.97834 0
M  V30 29 C 4.49897 -1.64221 -0.722843 0
M  V30 30 H -1.43554 0.397031 2.17709 0
M  V30 31 H -1.22029 2.07471 1.83043 0
M  V30 32 H -1.31997 4.40092 1.32778 0
M  V30 33 H -0.0361736 4.14236 0.0891813 0
M  V30 34 H -3.17545 -2.73323 1.22264 0
M  V30 35 H -3.38163 -4.3797 0.586177 0
M  V30 36 H -0.332522 -1.2872 0.362468 0
M  V30 37 H 2.47993 -0.214232 1.6727 0
M  V30 38 H 4.78539 -0.190591 2.27029 0
M  V30 39 H 7.17428 -0.704429 1.83325 0
M  V30 40 H 7.86364 -1.8152 -0.231562 0
M  V30 41 H 6.16792 -2.42536 -1.88453 0
M  V30 42 H 3.77111 -1.91878 -1.46186 0
M  V30 END ATOM
M  V30 BEGIN BOND
M  V30 1 2 1 2
M  V30 2 1 2 3
M  V30 3 1 3 4
M  V30 4 1 4 5
M  V30 5 2 5 6
M  V30 6 1 6 7
M  V30 7 2 7 8
M  V30 8 1 8 9
M  V30 9 2 9 10
M  V30 10 1 10 11
M  V30 11 1 11 12
M  V30 12 2 12 13
M  V30 13 1 13 14
M  V30 14 1 6 15
M  V30 15 2 15 16
M  V30 16 1 16 17
M  V30 17 1 17 18
M  V30 18 2 18 19
M  V30 19 1 19 20
M  V30 20 1 2 21
M  V30 21 1 21 22
M  V30 22 2 22 23
M  V30 23 1 23 24
M  V30 24 2 24 25
M  V30 25 1 25 26
M  V30 26 2 26 27
M  V30 27 1 27 28
M  V30 28 2 28 29
M  V30 29 1 8 4
M  V30 30 1 13 9
M  V30 31 1 19 15
M  V30 32 1 29 24
M  V30 33 1 3 30
M  V30 34 1 3 31
M  V30 35 1 14 32
M  V30 36 1 14 33
M  V30 37 1 20 34
M  V30 38 1 20 35
M  V30 39 1 21 36
M  V30 40 1 23 37
M  V30 41 1 25 38
M  V30 42 1 26 39
M  V30 43 1 27 40
M  V30 44 1 28 41
M  V30 45 1 29 42
M  V30 END BOND
M  V30 END CTAB
M  END
