
     RDKit          3D

  0  0  0  0  0  0  0  0  0  0999 V3000
M  V30 BEGIN CTAB
M  V30 COUNTS 21 21 0 0 0
M  V30 BEGIN ATOM
M  V30 1 N -3.03249 -1.09803 -0.120551 0
M  V30 2 C -1.8115 -0.995424 0.553937 0
M  V30 3 S -1.72115 -1.77192 2.00512 0
M  V30 4 C -0.647209 -0.260198 0.0519898 0
M  V30 5 C 0.607783 -0.906242 0.0430745 0
M  V30 6 C 1.74091 -0.295941 -0.394707 0
M  V30 7 C 1.62937 1.01532 -0.846931 0
M  V30 8 C 0.425247 1.6729 -0.853227 0
M  V30 9 C -0.703962 1.02331 -0.399683 0
M  V30 10 N -1.90513 1.74879 -0.409774 0
M  V30 11 C 3.0894 -0.916033 -0.422876 0
M  V30 12 F 2.98983 -2.24774 -0.0469915 0
M  V30 13 F 3.91763 -0.21651 0.477473 0
M  V30 14 F 3.60973 -0.762846 -1.67165 0
M  V30 15 H -3.77804 -0.379307 -0.0100412 0
M  V30 16 H -3.23288 -1.90489 -0.73719 0
M  V30 17 H 0.653035 -1.93749 0.413245 0
M  V30 18 H 2.5119 1.54273 -1.21185 0
M  V30 19 H 0.336732 2.67759 -1.22571 0
M  V30 20 H -2.02852 2.55252 0.222028 0
M  V30 21 H -2.65069 1.45942 -1.06467 0
M  V30 END ATOM
M  V30 BEGIN BOND
M  V30 1 1 1 2
M  V30 2 2 2 3
M  V30 3 1 2 4
M  V30 4 2 4 5
M  V30 5 1 5 6
M  V30 6 2 6 7
M  V30 7 1 7 8
M  V30 8 2 8 9
M  V30 9 1 9 10
M  V30 10 1 6 11
M  V30 11 1 11 12
M  V30 12 1 11 13
M  V30 13 1 11 14
M  V30 14 1 9 4
M  V30 15 1 1 15
M  V30 16 1 1 16
M  V30 17 1 5 17
M  V30 18 1 7 18
M  V30 19 1 8 19
M  V30 20 1 10 20
M  V30 21 1 10 21
M  V30 END BOND
M  V30 END CTAB
M  END
