
     RDKit          3D

  0  0  0  0  0  0  0  0  0  0999 V3000
M  V30 BEGIN CTAB
M  V30 COUNTS 41 45 0 0 0
M  V30 BEGIN ATOM
M  V30 1 N 7.24083 1.52368 0.132157 0
M  V30 2 C 6.06694 0.889743 -0.375189 0
M  V30 3 C 5.85029 -0.556682 0.0944022 0
M  V30 4 N 4.4448 -0.239063 0.111116 0
M  V30 5 C 4.80811 1.10278 0.48185 0
M  V30 6 C 3.24681 -0.936459 -0.130208 0
M  V30 7 N 2.07182 -0.268216 -0.0203913 0
M  V30 8 C 0.883562 -0.845313 -0.231433 0
M  V30 9 C 0.843157 -2.1712 -0.574124 0
M  V30 10 C -0.383194 -2.75454 -0.789235 0
M  V30 11 C -1.56527 -2.01889 -0.663209 0
M  V30 12 C -1.51463 -0.694965 -0.320505 0
M  V30 13 C -0.301677 -0.107766 -0.105132 0
M  V30 14 C -2.75188 0.0556949 -0.194193 0
M  V30 15 C -2.83032 1.4154 -0.476537 0
M  V30 16 C -3.98572 2.12323 -0.360315 0
M  V30 17 C -5.15066 1.51742 0.0490479 0
M  V30 18 O -6.37865 1.91669 0.250796 0
M  V30 19 C -7.1442 0.938896 0.648087 0
M  V30 20 N -8.53764 0.965189 0.971437 0
M  V30 21 N -6.37148 -0.148579 0.70617 0
M  V30 22 C -5.11195 0.163686 0.339494 0
M  V30 23 C -3.93479 -0.544606 0.218097 0
M  V30 24 N 2.00456 -2.84211 -0.685176 0
M  V30 25 C 3.20148 -2.27059 -0.475318 0
M  V30 26 H 7.66655 2.12467 -0.606677 0
M  V30 27 H 6.97626 2.14908 0.911049 0
M  V30 28 H 5.84047 1.02619 -1.45002 0
M  V30 29 H 6.32376 -0.63898 1.10792 0
M  V30 30 H 6.17474 -1.3162 -0.630189 0
M  V30 31 H 4.14492 1.90386 0.136544 0
M  V30 32 H 5.15149 1.19413 1.53803 0
M  V30 33 H -0.450562 -3.7856 -1.05776 0
M  V30 34 H -2.52995 -2.47104 -0.830833 0
M  V30 35 H -0.254788 0.943785 0.167495 0
M  V30 36 H -1.91915 1.90892 -0.800981 0
M  V30 37 H -3.99154 3.16593 -0.58989 0
M  V30 38 H -8.86474 1.75248 1.56023 0
M  V30 39 H -9.16263 0.222097 0.620928 0
M  V30 40 H -3.94227 -1.59943 0.453188 0
M  V30 41 H 4.13713 -2.7933 -0.560195 0
M  V30 END ATOM
M  V30 BEGIN BOND
M  V30 1 1 1 2
M  V30 2 1 2 3
M  V30 3 1 3 4
M  V30 4 1 4 5
M  V30 5 1 4 6
M  V30 6 2 6 7
M  V30 7 1 7 8
M  V30 8 2 8 9
M  V30 9 1 9 10
M  V30 10 2 10 11
M  V30 11 1 11 12
M  V30 12 2 12 13
M  V30 13 1 12 14
M  V30 14 2 14 15
M  V30 15 1 15 16
M  V30 16 2 16 17
M  V30 17 1 17 18
M  V30 18 1 18 19
M  V30 19 1 19 20
M  V30 20 2 19 21
M  V30 21 1 21 22
M  V30 22 2 22 23
M  V30 23 1 9 24
M  V30 24 2 24 25
M  V30 25 1 5 2
M  V30 26 1 25 6
M  V30 27 1 13 8
M  V30 28 1 23 14
M  V30 29 1 22 17
M  V30 30 1 1 26
M  V30 31 1 1 27
M  V30 32 1 2 28
M  V30 33 1 3 29
M  V30 34 1 3 30
M  V30 35 1 5 31
M  V30 36 1 5 32
M  V30 37 1 10 33
M  V30 38 1 11 34
M  V30 39 1 13 35
M  V30 40 1 15 36
M  V30 41 1 16 37
M  V30 42 1 20 38
M  V30 43 1 20 39
M  V30 44 1 23 40
M  V30 45 1 25 41
M  V30 END BOND
M  V30 END CTAB
M  END
