
     RDKit          3D

  0  0  0  0  0  0  0  0  0  0999 V3000
M  V30 BEGIN CTAB
M  V30 COUNTS 16 16 0 0 0
M  V30 BEGIN ATOM
M  V30 1 N 2.83302 -0.0641954 -0.019834 0
M  V30 2 C 1.41071 -0.0252067 -0.00790349 0
M  V30 3 C 0.722894 1.15368 0.200397 0
M  V30 4 F 1.45683 2.28005 0.3944 0
M  V30 5 C -0.65724 1.18199 0.210323 0
M  V30 6 F -1.33019 2.3394 0.414826 0
M  V30 7 C -1.42533 0.0325105 0.0124102 0
M  V30 8 N -2.83935 0.0699795 0.0240653 0
M  V30 9 C -0.722594 -1.14538 -0.19577 0
M  V30 10 F -1.46202 -2.27883 -0.390987 0
M  V30 11 C 0.656217 -1.16372 -0.203947 0
M  V30 12 F 1.29164 -2.35831 -0.414811 0
M  V30 13 H 3.33686 -0.780189 -0.583419 0
M  V30 14 H 3.43169 0.600781 0.517945 0
M  V30 15 H -3.34722 0.579707 0.759924 0
M  V30 16 H -3.3559 -0.422274 -0.717617 0
M  V30 END ATOM
M  V30 BEGIN BOND
M  V30 1 1 1 2
M  V30 2 2 2 3
M  V30 3 1 3 4
M  V30 4 1 3 5
M  V30 5 1 5 6
M  V30 6 2 5 7
M  V30 7 1 7 8
M  V30 8 1 7 9
M  V30 9 1 9 10
M  V30 10 2 9 11
M  V30 11 1 11 12
M  V30 12 1 11 2
M  V30 13 1 1 13
M  V30 14 1 1 14
M  V30 15 1 8 15
M  V30 16 1 8 16
M  V30 END BOND
M  V30 END CTAB
M  END
