
     RDKit          3D

  0  0  0  0  0  0  0  0  0  0999 V3000
M  V30 BEGIN CTAB
M  V30 COUNTS 36 37 0 0 0
M  V30 BEGIN ATOM
M  V30 1 N 6.4534 0.915484 0.753422 0
M  V30 2 C 6.01346 -0.333638 0.184047 0
M  V30 3 C 4.541 -0.378568 0.00185276 0
M  V30 4 C 3.95322 -1.50588 -0.52977 0
M  V30 5 C 2.56976 -1.58466 -0.716098 0
M  V30 6 C 1.77875 -0.536006 -0.370232 0
M  V30 7 C 2.37123 0.590964 0.16177 0
M  V30 8 C 3.73289 0.681994 0.350739 0
M  V30 9 C 0.309569 -0.567741 -0.546647 0
M  V30 10 N -0.432765 -1.56285 -1.04073 0
M  V30 11 O -1.69529 -1.19476 -1.02887 0
M  V30 12 C -1.79629 0.0259655 -0.535249 0
M  V30 13 N -0.543067 0.41521 -0.234932 0
M  V30 14 C -3.03019 0.844803 -0.333788 0
M  V30 15 C -4.261 0.0291986 -0.578738 0
M  V30 16 C -4.39486 -1.15567 0.318391 0
M  V30 17 C -5.47855 0.900831 -0.449586 0
M  V30 18 N -3.00029 1.45826 0.957884 0
M  V30 19 H 5.99751 1.15683 1.63743 0
M  V30 20 H 6.43268 1.64859 0.0301419 0
M  V30 21 H 6.46701 -0.49237 -0.801839 0
M  V30 22 H 6.30181 -1.19304 0.817189 0
M  V30 23 H 4.57819 -2.34683 -0.80819 0
M  V30 24 H 2.11333 -2.47994 -1.13713 0
M  V30 25 H 1.76021 1.43619 0.443509 0
M  V30 26 H 4.19848 1.57183 0.770516 0
M  V30 27 H -3.00537 1.64893 -1.10637 0
M  V30 28 H -4.23121 -0.339821 -1.62845 0
M  V30 29 H -5.49017 -1.41037 0.380901 0
M  V30 30 H -3.924 -2.03379 -0.166063 0
M  V30 31 H -4.05644 -0.99426 1.34724 0
M  V30 32 H -6.02567 1.01181 -1.42611 0
M  V30 33 H -5.27633 1.91284 -0.0970454 0
M  V30 34 H -6.21455 0.445675 0.274593 0
M  V30 35 H -3.50758 0.939027 1.69959 0
M  V30 36 H -3.20888 2.47577 0.948211 0
M  V30 END ATOM
M  V30 BEGIN BOND
M  V30 1 1 1 2
M  V30 2 1 2 3
M  V30 3 2 3 4
M  V30 4 1 4 5
M  V30 5 2 5 6
M  V30 6 1 6 7
M  V30 7 2 7 8
M  V30 8 1 6 9
M  V30 9 2 9 10
M  V30 10 1 10 11
M  V30 11 1 11 12
M  V30 12 2 12 13
M  V30 13 1 12 14
M  V30 14 1 14 15
M  V30 15 1 15 16
M  V30 16 1 15 17
M  V30 17 1 14 18
M  V30 18 1 8 3
M  V30 19 1 13 9
M  V30 20 1 1 19
M  V30 21 1 1 20
M  V30 22 1 2 21
M  V30 23 1 2 22
M  V30 24 1 4 23
M  V30 25 1 5 24
M  V30 26 1 7 25
M  V30 27 1 8 26
M  V30 28 1 14 27
M  V30 29 1 15 28
M  V30 30 1 16 29
M  V30 31 1 16 30
M  V30 32 1 16 31
M  V30 33 1 17 32
M  V30 34 1 17 33
M  V30 35 1 17 34
M  V30 36 1 18 35
M  V30 37 1 18 36
M  V30 END BOND
M  V30 END CTAB
M  END
