
     RDKit          3D

  0  0  0  0  0  0  0  0  0  0999 V3000
M  V30 BEGIN CTAB
M  V30 COUNTS 29 30 0 0 0
M  V30 BEGIN ATOM
M  V30 1 N -3.1388 -1.51877 0.0157409 0
M  V30 2 C -3.27078 -0.193679 0.613167 0
M  V30 3 C -2.49175 0.778187 -0.25112 0
M  V30 4 C -1.06724 0.407034 -0.319366 0
M  V30 5 C -0.190219 0.672956 0.721421 0
M  V30 6 C 1.12627 0.322711 0.643151 0
M  V30 7 C 1.59988 -0.310244 -0.494798 0
M  V30 8 C 0.758842 -0.590472 -1.54808 0
M  V30 9 C -0.566183 -0.223774 -1.43826 0
M  V30 10 C 3.02178 -0.702643 -0.610457 0
M  V30 11 C 4.061 0.274893 -0.124963 0
M  V30 12 C 3.82359 -1.01517 0.593821 0
M  V30 13 N -2.6947 2.12127 0.256275 0
M  V30 14 H -2.16961 -1.84468 0.178603 0
M  V30 15 H -3.40821 -1.51064 -0.991628 0
M  V30 16 H -2.84109 -0.240598 1.6284 0
M  V30 17 H -4.33646 0.0755547 0.668085 0
M  V30 18 H -2.90155 0.764477 -1.27877 0
M  V30 19 H -0.609451 1.1664 1.5824 0
M  V30 20 H 1.8045 0.528143 1.44758 0
M  V30 21 H 1.13771 -1.08752 -2.43806 0
M  V30 22 H -1.27727 -0.425938 -2.2527 0
M  V30 23 H 3.30939 -1.20013 -1.54886 0
M  V30 24 H 3.64801 1.22572 0.274967 0
M  V30 25 H 4.99508 0.423761 -0.696146 0
M  V30 26 H 4.59359 -1.8044 0.496808 0
M  V30 27 H 3.41357 -0.895952 1.61696 0
M  V30 28 H -3.23664 2.72331 -0.402058 0
M  V30 29 H -3.09326 2.0802 1.20435 0
M  V30 END ATOM
M  V30 BEGIN BOND
M  V30 1 1 1 2
M  V30 2 1 2 3
M  V30 3 1 3 4
M  V30 4 2 4 5
M  V30 5 1 5 6
M  V30 6 2 6 7
M  V30 7 1 7 8
M  V30 8 2 8 9
M  V30 9 1 7 10
M  V30 10 1 10 11
M  V30 11 1 11 12
M  V30 12 1 3 13
M  V30 13 1 9 4
M  V30 14 1 12 10
M  V30 15 1 1 14
M  V30 16 1 1 15
M  V30 17 1 2 16
M  V30 18 1 2 17
M  V30 19 1 3 18
M  V30 20 1 5 19
M  V30 21 1 6 20
M  V30 22 1 8 21
M  V30 23 1 9 22
M  V30 24 1 10 23
M  V30 25 1 11 24
M  V30 26 1 11 25
M  V30 27 1 12 26
M  V30 28 1 12 27
M  V30 29 1 13 28
M  V30 30 1 13 29
M  V30 END BOND
M  V30 END CTAB
M  END
