
     RDKit          3D

  0  0  0  0  0  0  0  0  0  0999 V3000
M  V30 BEGIN CTAB
M  V30 COUNTS 57 61 0 0 0
M  V30 BEGIN ATOM
M  V30 1 C -0.116951 -0.308898 2.67137 0
M  V30 2 C -1.07014 -0.34383 1.5679 0
M  V30 3 N -2.24601 -1.02514 1.61681 0
M  V30 4 N -2.87027 -0.919538 0.468706 0
M  V30 5 C -2.11214 -0.174981 -0.32764 0
M  V30 6 C -0.947756 0.230111 0.305554 0
M  V30 7 C 0.0776112 1.10375 -0.243793 0
M  V30 8 C 1.48299 0.801994 0.0574366 0
M  V30 9 C 2.49399 1.60695 0.535484 0
M  V30 10 C 2.42088 3.03921 0.875294 0
M  V30 11 N 3.58098 0.828844 0.640376 0
M  V30 12 N 3.3604 -0.407121 0.272228 0
M  V30 13 C 2.08334 -0.437475 -0.0861226 0
M  V30 14 N 1.43804 -1.63953 -0.562568 0
M  V30 15 C 4.27305 -1.51287 0.24717 0
M  V30 16 C 4.07026 -2.63461 1.01618 0
M  V30 17 C 4.98814 -3.68765 0.958004 0
M  V30 18 C 6.08775 -3.60234 0.136385 0
M  V30 19 C 6.25012 -2.46312 -0.613927 0
M  V30 20 N 5.36132 -1.47547 -0.539726 0
M  V30 21 C -0.282857 2.46227 -0.665361 0
M  V30 22 C -0.00915732 2.95029 -1.96033 0
M  V30 23 C -0.286364 4.19985 -2.40449 0
M  V30 24 C -0.877502 5.09889 -1.57392 0
M  V30 25 C -1.17401 4.69227 -0.295521 0
M  V30 26 C -0.880522 3.41113 0.131052 0
M  V30 27 Cl -1.35992 3.06261 1.76861 0
M  V30 28 Cl -1.93993 5.8844 0.753502 0
M  V30 29 N -2.48067 0.155996 -1.68246 0
M  V30 30 C -4.12026 -1.50553 0.171288 0
M  V30 31 C -4.24577 -2.86802 0.0270793 0
M  V30 32 C -5.4576 -3.44441 -0.261948 0
M  V30 33 C -6.55668 -2.6304 -0.406827 0
M  V30 34 C -6.38459 -1.27579 -0.254144 0
M  V30 35 N -5.19797 -0.730371 0.0272073 0
M  V30 36 H -0.686318 -0.341291 3.62849 0
M  V30 37 H 0.545563 -1.21534 2.72608 0
M  V30 38 H 0.471523 0.62759 2.73776 0
M  V30 39 H 0.0914582 0.602792 -1.36909 0
M  V30 40 H 2.27145 3.71701 0.0139005 0
M  V30 41 H 1.7932 3.2632 1.75701 0
M  V30 42 H 3.45135 3.34699 1.23757 0
M  V30 43 H 1.32845 -1.70926 -1.58968 0
M  V30 44 H 1.10451 -2.38393 0.058183 0
M  V30 45 H 3.2242 -2.72628 1.66288 0
M  V30 46 H 4.87832 -4.58682 1.53727 0
M  V30 47 H 6.81172 -4.39292 0.0682111 0
M  V30 48 H 7.09302 -2.32671 -1.28341 0
M  V30 49 H 0.46214 2.26753 -2.64602 0
M  V30 50 H -0.0421336 4.49375 -3.41753 0
M  V30 51 H -1.11068 6.10197 -1.89792 0
M  V30 52 H -3.32598 0.74376 -1.84024 0
M  V30 53 H -1.94624 -0.162274 -2.50029 0
M  V30 54 H -3.3758 -3.53331 0.139933 0
M  V30 55 H -5.56052 -4.51346 -0.375972 0
M  V30 56 H -7.54311 -3.0443 -0.637232 0
M  V30 57 H -7.28792 -0.670191 -0.378766 0
M  V30 END ATOM
M  V30 BEGIN BOND
M  V30 1 1 1 2
M  V30 2 2 2 3
M  V30 3 1 3 4
M  V30 4 1 4 5
M  V30 5 2 5 6
M  V30 6 1 6 7
M  V30 7 1 7 8
M  V30 8 1 8 9
M  V30 9 1 9 10
M  V30 10 2 9 11
M  V30 11 1 11 12
M  V30 12 1 12 13
M  V30 13 1 13 14
M  V30 14 1 12 15
M  V30 15 2 15 16
M  V30 16 1 16 17
M  V30 17 2 17 18
M  V30 18 1 18 19
M  V30 19 2 19 20
M  V30 20 1 7 21
M  V30 21 2 21 22
M  V30 22 1 22 23
M  V30 23 2 23 24
M  V30 24 1 24 25
M  V30 25 2 25 26
M  V30 26 1 26 27
M  V30 27 1 25 28
M  V30 28 1 5 29
M  V30 29 1 4 30
M  V30 30 2 30 31
M  V30 31 1 31 32
M  V30 32 2 32 33
M  V30 33 1 33 34
M  V30 34 2 34 35
M  V30 35 1 6 2
M  V30 36 2 13 8
M  V30 37 1 20 15
M  V30 38 1 26 21
M  V30 39 1 35 30
M  V30 40 1 1 36
M  V30 41 1 1 37
M  V30 42 1 1 38
M  V30 43 1 7 39
M  V30 44 1 10 40
M  V30 45 1 10 41
M  V30 46 1 10 42
M  V30 47 1 14 43
M  V30 48 1 14 44
M  V30 49 1 16 45
M  V30 50 1 17 46
M  V30 51 1 18 47
M  V30 52 1 19 48
M  V30 53 1 22 49
M  V30 54 1 23 50
M  V30 55 1 24 51
M  V30 56 1 29 52
M  V30 57 1 29 53
M  V30 58 1 31 54
M  V30 59 1 32 55
M  V30 60 1 33 56
M  V30 61 1 34 57
M  V30 END BOND
M  V30 END CTAB
M  END
