
     RDKit          3D

  0  0  0  0  0  0  0  0  0  0999 V3000
M  V30 BEGIN CTAB
M  V30 COUNTS 25 25 0 0 0
M  V30 BEGIN ATOM
M  V30 1 N 2.14251 -1.50616 0.465882 0
M  V30 2 C 1.84293 -0.309976 -0.21381 0
M  V30 3 N 2.36434 0.793049 0.165681 0
M  V30 4 N 3.22828 0.826089 1.24953 0
M  V30 5 N 0.985653 -0.275142 -1.32589 0
M  V30 6 C -0.0484938 0.655302 -1.49523 0
M  V30 7 C -1.25644 0.578301 -0.642723 0
M  V30 8 C -1.04103 0.723322 0.832329 0
M  V30 9 C -2.45406 0.266685 1.30278 0
M  V30 10 C -2.59998 -0.934223 0.393573 0
M  V30 11 C -1.92387 -0.771536 -0.714672 0
M  V30 12 H 3.07998 -1.75412 0.883013 0
M  V30 13 H 1.40854 -2.25821 0.603035 0
M  V30 14 H 3.44653 1.77497 1.64885 0
M  V30 15 H 3.6745 0.00567298 1.6965 0
M  V30 16 H 1.16336 -1.01469 -2.06189 0
M  V30 17 H -0.430854 0.641363 -2.5694 0
M  V30 18 H 0.314654 1.73466 -1.41773 0
M  V30 19 H -2.06362 1.28398 -1.00264 0
M  V30 20 H -0.348741 -0.0326678 1.18476 0
M  V30 21 H -0.832313 1.74613 1.1589 0
M  V30 22 H -2.43149 0.0102079 2.35777 0
M  V30 23 H -3.13857 1.08366 1.02502 0
M  V30 24 H -3.21706 -1.77835 0.722463 0
M  V30 25 H -1.86474 -1.48831 -1.53033 0
M  V30 END ATOM
M  V30 BEGIN BOND
M  V30 1 1 1 2
M  V30 2 2 2 3 CFG=2
M  V30 3 1 3 4
M  V30 4 1 2 5
M  V30 5 1 5 6
M  V30 6 1 6 7
M  V30 7 1 7 8
M  V30 8 1 8 9
M  V30 9 1 9 10
M  V30 10 2 10 11
M  V30 11 1 11 7
M  V30 12 1 1 12
M  V30 13 1 1 13
M  V30 14 1 4 14
M  V30 15 1 4 15
M  V30 16 1 5 16
M  V30 17 1 6 17
M  V30 18 1 6 18
M  V30 19 1 7 19
M  V30 20 1 8 20
M  V30 21 1 8 21
M  V30 22 1 9 22
M  V30 23 1 9 23
M  V30 24 1 10 24
M  V30 25 1 11 25
M  V30 END BOND
M  V30 END CTAB
M  END
