
     RDKit          3D

  0  0  0  0  0  0  0  0  0  0999 V3000
M  V30 BEGIN CTAB
M  V30 COUNTS 48 52 0 0 0
M  V30 BEGIN ATOM
M  V30 1 N 10.0665 -0.174581 1.22993 0
M  V30 2 C 8.75332 -0.0725252 0.640717 0
M  V30 3 C 8.59366 0.210781 -0.695826 0
M  V30 4 C 7.33995 0.310171 -1.26747 0
M  V30 5 C 6.21122 0.131841 -0.531637 0
M  V30 6 C 6.37968 -0.15407 0.817823 0
M  V30 7 C 7.62001 -0.256661 1.40327 0
M  V30 8 C 4.85257 0.235938 -1.13425 0
M  V30 9 C 4.68493 0.518425 -2.46756 0
M  V30 10 S 2.97919 0.517645 -2.61031 0
M  V30 11 C 2.59236 0.16305 -0.987913 0
M  V30 12 N 3.78148 0.063812 -0.422523 0
M  V30 13 C 1.26035 0.00473977 -0.363148 0
M  V30 14 C 1.08467 -0.282791 0.964473 0
M  V30 15 C -0.200348 -0.419922 1.49433 0
M  V30 16 C -1.27047 -0.263815 0.673292 0
M  V30 17 C -1.12706 0.0242357 -0.659526 0
M  V30 18 C 0.168188 0.160953 -1.18658 0
M  V30 19 C -2.63364 -0.403202 1.2069 0
M  V30 20 N -3.78101 -0.286871 0.56495 0
M  V30 21 C -4.89942 -0.442788 1.19675 0
M  V30 22 C -4.83491 -0.728837 2.538 0
M  V30 23 S -3.14639 -0.75485 2.80477 0
M  V30 24 C -6.21144 -0.318105 0.501638 0
M  V30 25 C -6.2853 -0.0297029 -0.851016 0
M  V30 26 C -7.48073 0.0930174 -1.52704 0
M  V30 27 C -8.67086 -0.0737329 -0.85135 0
M  V30 28 N -9.9078 0.0510516 -1.54057 0
M  V30 29 C -8.61584 -0.360842 0.49364 0
M  V30 30 C -7.39699 -0.483389 1.17088 0
M  V30 31 H 10.1981 -0.793088 2.04075 0
M  V30 32 H 10.8821 0.362654 0.853587 0
M  V30 33 H 9.46343 0.360357 -1.31963 0
M  V30 34 H 7.24154 0.538458 -2.34185 0
M  V30 35 H 5.48483 -0.299059 1.41805 0
M  V30 36 H 7.75399 -0.479493 2.45524 0
M  V30 37 H 5.4574 0.697919 -3.23933 0
M  V30 38 H 1.95048 -0.403208 1.60127 0
M  V30 39 H -0.348958 -0.645144 2.5333 0
M  V30 40 H -2.01087 0.137751 -1.26568 0
M  V30 41 H 0.234115 0.387982 -2.2411 0
M  V30 42 H -5.66631 -0.896469 3.24921 0
M  V30 43 H -5.34802 0.102913 -1.38917 0
M  V30 44 H -7.51405 0.322386 -2.60062 0
M  V30 45 H -10.3755 0.961525 -1.74059 0
M  V30 46 H -10.4054 -0.814781 -1.88215 0
M  V30 47 H -9.52473 -0.493351 1.03375 0
M  V30 48 H -7.37796 -0.709995 2.23033 0
M  V30 END ATOM
M  V30 BEGIN BOND
M  V30 1 1 1 2
M  V30 2 2 2 3
M  V30 3 1 3 4
M  V30 4 2 4 5
M  V30 5 1 5 6
M  V30 6 2 6 7
M  V30 7 1 5 8
M  V30 8 2 8 9
M  V30 9 1 9 10
M  V30 10 1 10 11
M  V30 11 2 11 12
M  V30 12 1 11 13
M  V30 13 2 13 14
M  V30 14 1 14 15
M  V30 15 2 15 16
M  V30 16 1 16 17
M  V30 17 2 17 18
M  V30 18 1 16 19
M  V30 19 2 19 20
M  V30 20 1 20 21
M  V30 21 2 21 22
M  V30 22 1 22 23
M  V30 23 1 21 24
M  V30 24 2 24 25
M  V30 25 1 25 26
M  V30 26 2 26 27
M  V30 27 1 27 28
M  V30 28 1 27 29
M  V30 29 2 29 30
M  V30 30 1 7 2
M  V30 31 1 12 8
M  V30 32 1 18 13
M  V30 33 1 23 19
M  V30 34 1 30 24
M  V30 35 1 1 31
M  V30 36 1 1 32
M  V30 37 1 3 33
M  V30 38 1 4 34
M  V30 39 1 6 35
M  V30 40 1 7 36
M  V30 41 1 9 37
M  V30 42 1 14 38
M  V30 43 1 15 39
M  V30 44 1 17 40
M  V30 45 1 18 41
M  V30 46 1 22 42
M  V30 47 1 25 43
M  V30 48 1 26 44
M  V30 49 1 28 45
M  V30 50 1 28 46
M  V30 51 1 29 47
M  V30 52 1 30 48
M  V30 END BOND
M  V30 END CTAB
M  END
