
     RDKit          3D

  0  0  0  0  0  0  0  0  0  0999 V3000
M  V30 BEGIN CTAB
M  V30 COUNTS 40 42 0 0 0
M  V30 BEGIN ATOM
M  V30 1 N -6.06833 1.12501 0.576154 0
M  V30 2 C -4.994 0.448578 -0.0551257 0 CFG=2
M  V30 3 C -4.08148 -0.152514 0.96982 0
M  V30 4 C -2.84977 0.742623 0.975056 0
M  V30 5 C -2.7528 1.16539 -0.466414 0 CFG=2
M  V30 6 C -4.18669 1.43931 -0.839973 0
M  V30 7 N -2.19343 0.0751081 -1.2289 0
M  V30 8 C -0.817553 -0.24805 -1.08183 0
M  V30 9 C 0.0505878 0.476307 -0.279752 0
M  V30 10 C 1.37859 0.158672 -0.125698 0
M  V30 11 S 2.50713 1.07515 0.898875 0
M  V30 12 C 4.1366 0.406078 0.877453 0
M  V30 13 C 4.48723 -0.543809 1.79029 0
M  V30 14 C 5.75807 -1.06034 1.76757 0
M  V30 15 C 6.70499 -0.65107 0.846594 0
M  V30 16 C 6.2997 0.318111 -0.0619428 0
M  V30 17 C 5.03133 0.850882 -0.0588983 0
M  V30 18 F 7.9669 -1.17093 0.831948 0
M  V30 19 N 1.82866 -0.912262 -0.799047 0
M  V30 20 C 1.00603 -1.64344 -1.5934 0
M  V30 21 N -0.279715 -1.31805 -1.72881 0
M  V30 22 N 1.55103 -2.7795 -2.28799 0
M  V30 23 H -5.91017 1.24031 1.55915 0
M  V30 24 H -6.98208 0.796454 0.308741 0
M  V30 25 H -5.35631 -0.32245 -0.786468 0
M  V30 26 H -4.54238 -0.217626 1.97602 0
M  V30 27 H -3.74544 -1.14103 0.58936 0
M  V30 28 H -2.0044 0.185138 1.36605 0
M  V30 29 H -3.03663 1.66879 1.57146 0
M  V30 30 H -2.12913 2.09367 -0.572963 0
M  V30 31 H -4.2997 1.3333 -1.93644 0
M  V30 32 H -4.43372 2.47567 -0.52778 0
M  V30 33 H -2.75845 -0.491935 -1.8895 0
M  V30 34 H -0.305078 1.34613 0.255903 0
M  V30 35 H 3.75741 -0.883396 2.5276 0
M  V30 36 H 6.01467 -1.82134 2.51056 0
M  V30 37 H 7.00025 0.666893 -0.795667 0
M  V30 38 H 4.72262 1.61553 -0.781025 0
M  V30 39 H 2.39014 -2.61389 -2.87889 0
M  V30 40 H 1.13531 -3.73149 -2.21266 0
M  V30 END ATOM
M  V30 BEGIN BOND
M  V30 1 1 1 2
M  V30 2 1 2 3
M  V30 3 1 3 4
M  V30 4 1 4 5
M  V30 5 1 5 6
M  V30 6 1 5 7
M  V30 7 1 7 8
M  V30 8 2 8 9
M  V30 9 1 9 10
M  V30 10 1 10 11
M  V30 11 1 11 12
M  V30 12 2 12 13
M  V30 13 1 13 14
M  V30 14 2 14 15
M  V30 15 1 15 16
M  V30 16 2 16 17
M  V30 17 1 15 18
M  V30 18 2 10 19
M  V30 19 1 19 20
M  V30 20 2 20 21
M  V30 21 1 20 22
M  V30 22 1 6 2
M  V30 23 1 21 8
M  V30 24 1 17 12
M  V30 25 1 1 23
M  V30 26 1 1 24
M  V30 27 1 2 25 CFG=3
M  V30 28 1 3 26
M  V30 29 1 3 27
M  V30 30 1 4 28
M  V30 31 1 4 29
M  V30 32 1 5 30 CFG=1
M  V30 33 1 6 31
M  V30 34 1 6 32
M  V30 35 1 7 33
M  V30 36 1 9 34
M  V30 37 1 13 35
M  V30 38 1 14 36
M  V30 39 1 16 37
M  V30 40 1 17 38
M  V30 41 1 22 39
M  V30 42 1 22 40
M  V30 END BOND
M  V30 END CTAB
M  END
