
     RDKit          3D

  0  0  0  0  0  0  0  0  0  0999 V3000
M  V30 BEGIN CTAB
M  V30 COUNTS 64 63 0 0 0
M  V30 BEGIN ATOM
M  V30 1 N 6.24278 -5.57436 -0.313996 0
M  V30 2 C 5.22062 -4.87485 -1.08334 0
M  V30 3 C 4.7996 -3.63052 -0.403528 0
M  V30 4 O 5.30764 -3.29683 0.676724 0
M  V30 5 N 3.81574 -2.82801 -0.995272 0
M  V30 6 C 3.34327 -1.55734 -0.372137 0 CFG=2
M  V30 7 C 1.90206 -1.71749 -0.0980068 0
M  V30 8 O 1.35251 -2.78879 -0.553818 0
M  V30 9 N 1.13638 -0.785895 0.619844 0
M  V30 10 C -0.279531 -1.00915 0.877295 0 CFG=2
M  V30 11 C -1.1628 -0.125461 0.0702004 0
M  V30 12 O -0.633536 0.631334 -0.768317 0
M  V30 13 N -2.55939 -0.106172 0.211742 0
M  V30 14 C -3.42069 0.742107 -0.576273 0
M  V30 15 C -4.83488 0.567104 -0.186756 0
M  V30 16 O -5.10208 -0.235696 0.738784 0
M  V30 17 N -5.88632 1.26782 -0.814646 0
M  V30 18 C -7.26081 1.06088 -0.383207 0 CFG=2
M  V30 19 C -8.05984 0.378695 -1.46577 0
M  V30 20 O -7.52164 0.0816662 -2.55532 0
M  V30 21 O -9.40129 0.106782 -1.18135 0
M  V30 22 C -7.92653 2.37819 -0.144749 0
M  V30 23 O -7.23069 3.07399 0.829313 0
M  V30 24 C -0.609655 -0.996515 2.34378 0
M  V30 25 C -0.275377 0.289218 2.99277 0
M  V30 26 O 0.88785 0.626829 3.30904 0
M  V30 27 O -1.30034 1.20059 3.28179 0
M  V30 28 C 3.59452 -0.5412 -1.449 0
M  V30 29 C 3.26707 0.873647 -1.14357 0
M  V30 30 C 4.07698 1.42855 0.0422971 0
M  V30 31 N 3.70836 2.81173 0.278002 0
M  V30 32 C 4.25853 3.56395 1.33665 0
M  V30 33 N 3.98043 4.83899 1.42452 0
M  V30 34 N 5.10557 2.97836 2.31687 0
M  V30 35 H 6.62757 -6.32053 -0.918036 0
M  V30 36 H 5.82916 -5.95071 0.559808 0
M  V30 37 H 5.65646 -4.65377 -2.09098 0
M  V30 38 H 4.38419 -5.5829 -1.24531 0
M  V30 39 H 3.37802 -3.0779 -1.88092 0
M  V30 40 H 3.94696 -1.42191 0.515881 0
M  V30 41 H 1.53445 0.0856307 1.01135 0
M  V30 42 H -0.549562 -2.05022 0.509918 0
M  V30 43 H -3.00028 -0.727302 0.918525 0
M  V30 44 H -3.14344 1.82767 -0.513937 0
M  V30 45 H -3.36182 0.489954 -1.6669 0
M  V30 46 H -5.69607 1.93602 -1.58711 0
M  V30 47 H -7.33229 0.411527 0.50645 0
M  V30 48 H -10.0956 0.726968 -1.58618 0
M  V30 49 H -8.091 2.96108 -1.06731 0
M  V30 50 H -8.94702 2.19242 0.299305 0
M  V30 51 H -6.76252 3.86359 0.443822 0
M  V30 52 H -1.65057 -1.29691 2.47732 0
M  V30 53 H 0.0103728 -1.76879 2.83687 0
M  V30 54 H -1.11363 2.17454 3.23345 0
M  V30 55 H 4.70025 -0.558913 -1.7294 0
M  V30 56 H 3.08087 -0.847687 -2.41388 0
M  V30 57 H 2.18299 1.03501 -1.01113 0
M  V30 58 H 3.63379 1.51741 -2.0097 0
M  V30 59 H 3.87931 0.82058 0.942757 0
M  V30 60 H 5.1489 1.32064 -0.204096 0
M  V30 61 H 3.01887 3.24638 -0.367066 0
M  V30 62 H 3.35796 5.2771 0.71138 0
M  V30 63 H 5.15395 1.95066 2.41573 0
M  V30 64 H 5.68518 3.58818 2.9456 0
M  V30 END ATOM
M  V30 BEGIN BOND
M  V30 1 1 1 2
M  V30 2 1 2 3
M  V30 3 2 3 4
M  V30 4 1 3 5
M  V30 5 1 5 6
M  V30 6 1 6 7
M  V30 7 2 7 8
M  V30 8 1 7 9
M  V30 9 1 9 10
M  V30 10 1 10 11
M  V30 11 2 11 12
M  V30 12 1 11 13
M  V30 13 1 13 14
M  V30 14 1 14 15
M  V30 15 2 15 16
M  V30 16 1 15 17
M  V30 17 1 17 18
M  V30 18 1 18 19
M  V30 19 2 19 20
M  V30 20 1 19 21
M  V30 21 1 18 22
M  V30 22 1 22 23
M  V30 23 1 10 24
M  V30 24 1 24 25
M  V30 25 2 25 26
M  V30 26 1 25 27
M  V30 27 1 6 28
M  V30 28 1 28 29
M  V30 29 1 29 30
M  V30 30 1 30 31
M  V30 31 1 31 32
M  V30 32 2 32 33 CFG=2
M  V30 33 1 32 34
M  V30 34 1 1 35
M  V30 35 1 1 36
M  V30 36 1 2 37
M  V30 37 1 2 38
M  V30 38 1 5 39
M  V30 39 1 6 40 CFG=1
M  V30 40 1 9 41
M  V30 41 1 10 42 CFG=3
M  V30 42 1 13 43
M  V30 43 1 14 44
M  V30 44 1 14 45
M  V30 45 1 17 46
M  V30 46 1 18 47 CFG=1
M  V30 47 1 21 48
M  V30 48 1 22 49
M  V30 49 1 22 50
M  V30 50 1 23 51
M  V30 51 1 24 52
M  V30 52 1 24 53
M  V30 53 1 27 54
M  V30 54 1 28 55
M  V30 55 1 28 56
M  V30 56 1 29 57
M  V30 57 1 29 58
M  V30 58 1 30 59
M  V30 59 1 30 60
M  V30 60 1 31 61
M  V30 61 1 33 62
M  V30 62 1 34 63
M  V30 63 1 34 64
M  V30 END BOND
M  V30 END CTAB
M  END
