
     RDKit          3D

  0  0  0  0  0  0  0  0  0  0999 V3000
M  V30 BEGIN CTAB
M  V30 COUNTS 46 47 0 0 0
M  V30 BEGIN ATOM
M  V30 1 N -0.848919 -4.37118 -1.3378 0
M  V30 2 C -1.12899 -3.75928 -0.0836283 0
M  V30 3 C -0.406981 -2.48276 0.203343 0
M  V30 4 N -0.601577 -1.40323 -0.65205 0
M  V30 5 S 0.424903 -1.09034 -1.90657 0
M  V30 6 O 0.571492 -2.23786 -2.83949 0
M  V30 7 O 0.092234 0.115204 -2.7381 0
M  V30 8 C 2.04451 -0.770762 -1.25626 0
M  V30 9 C 2.95847 -1.76374 -1.07472 0
M  V30 10 C 4.19757 -1.41751 -0.559715 0
M  V30 11 C 4.53331 -0.119661 -0.228883 0
M  V30 12 C 3.59964 0.883664 -0.416097 0
M  V30 13 C 2.36619 0.529348 -0.930293 0
M  V30 14 S 3.94366 2.55366 -0.0230559 0
M  V30 15 O 4.86024 2.57406 1.16556 0
M  V30 16 O 2.67675 3.28468 0.392863 0
M  V30 17 N 4.61647 3.41228 -1.3409 0
M  V30 18 C -1.71675 -0.56873 -0.420589 0
M  V30 19 C -1.4253 0.57603 0.499454 0
M  V30 20 C -2.64028 1.4095 0.697151 0
M  V30 21 C -3.53918 1.15786 1.71143 0
M  V30 22 C -4.67712 1.8954 1.93959 0
M  V30 23 C -4.96615 2.95869 1.12181 0
M  V30 24 C -4.09311 3.24488 0.0949549 0
M  V30 25 C -2.95725 2.49187 -0.115988 0
M  V30 26 H -0.574837 -5.36001 -1.29396 0
M  V30 27 H -1.50686 -4.12989 -2.09932 0
M  V30 28 H -2.22718 -3.68345 0.0648743 0
M  V30 29 H -0.798934 -4.49389 0.711009 0
M  V30 30 H -0.582257 -2.21639 1.2886 0
M  V30 31 H 0.693964 -2.74735 0.19486 0
M  V30 32 H 2.6894 -2.77971 -1.33601 0
M  V30 33 H 4.92845 -2.21689 -0.415388 0
M  V30 34 H 5.52762 0.120365 0.178381 0
M  V30 35 H 1.63266 1.30933 -1.07868 0
M  V30 36 H 4.35498 3.01599 -2.26659 0
M  V30 37 H 5.63543 3.60115 -1.23418 0
M  V30 38 H -2.53548 -1.1702 0.0410709 0
M  V30 39 H -2.12496 -0.15962 -1.368 0
M  V30 40 H -1.13302 0.180868 1.47667 0
M  V30 41 H -0.669355 1.22057 0.0174241 0
M  V30 42 H -3.31846 0.317497 2.36431 0
M  V30 43 H -5.37341 1.67958 2.74614 0
M  V30 44 H -5.85522 3.57855 1.25645 0
M  V30 45 H -4.34859 4.0964 -0.539586 0
M  V30 46 H -2.29776 2.73503 -0.918663 0
M  V30 END ATOM
M  V30 BEGIN BOND
M  V30 1 1 1 2
M  V30 2 1 2 3
M  V30 3 1 3 4
M  V30 4 1 4 5
M  V30 5 2 5 6
M  V30 6 2 5 7
M  V30 7 1 5 8
M  V30 8 2 8 9
M  V30 9 1 9 10
M  V30 10 2 10 11
M  V30 11 1 11 12
M  V30 12 2 12 13
M  V30 13 1 12 14
M  V30 14 2 14 15
M  V30 15 2 14 16
M  V30 16 1 14 17
M  V30 17 1 4 18
M  V30 18 1 18 19
M  V30 19 1 19 20
M  V30 20 2 20 21
M  V30 21 1 21 22
M  V30 22 2 22 23
M  V30 23 1 23 24
M  V30 24 2 24 25
M  V30 25 1 13 8
M  V30 26 1 25 20
M  V30 27 1 1 26
M  V30 28 1 1 27
M  V30 29 1 2 28
M  V30 30 1 2 29
M  V30 31 1 3 30
M  V30 32 1 3 31
M  V30 33 1 9 32
M  V30 34 1 10 33
M  V30 35 1 11 34
M  V30 36 1 13 35
M  V30 37 1 17 36
M  V30 38 1 17 37
M  V30 39 1 18 38
M  V30 40 1 18 39
M  V30 41 1 19 40
M  V30 42 1 19 41
M  V30 43 1 21 42
M  V30 44 1 22 43
M  V30 45 1 23 44
M  V30 46 1 24 45
M  V30 47 1 25 46
M  V30 END BOND
M  V30 END CTAB
M  END
