
     RDKit          3D

  0  0  0  0  0  0  0  0  0  0999 V3000
M  V30 BEGIN CTAB
M  V30 COUNTS 39 41 0 0 0
M  V30 BEGIN ATOM
M  V30 1 N 5.05588 2.07677 -0.247691 0
M  V30 2 C 4.96703 0.631602 -0.0562811 0
M  V30 3 C 3.93072 0.373327 1.04632 0
M  V30 4 C 2.88379 0.485673 -0.0503589 0
M  V30 5 C 3.95493 -0.0155335 -1.01203 0
M  V30 6 C 1.74024 -0.406041 0.125668 0
M  V30 7 C 0.454245 0.0313722 -0.096389 0
M  V30 8 C -0.643566 -0.807582 0.0703711 0
M  V30 9 N -0.426241 -2.07582 0.458975 0
M  V30 10 C 0.831611 -2.51556 0.679668 0
M  V30 11 N 1.90022 -1.68126 0.512126 0
M  V30 12 N 1.09839 -3.84173 1.089 0
M  V30 13 N -1.96348 -0.351146 -0.165941 0
M  V30 14 C -2.76297 0.280119 0.85444 0
M  V30 15 C -4.10607 0.663177 0.359564 0
M  V30 16 N -5.24833 -0.0495797 0.361727 0
M  V30 17 C -6.24306 0.688249 -0.190415 0
M  V30 18 C -5.71302 1.88656 -0.545272 0
M  V30 19 N -4.39829 1.84492 -0.196206 0
M  V30 20 C -2.52788 -0.529156 -1.48111 0
M  V30 21 H 6.03314 2.37606 -0.32658 0
M  V30 22 H 4.40416 2.42481 -0.955411 0
M  V30 23 H 5.90633 0.0948225 0.0426845 0
M  V30 24 H 3.88019 1.17037 1.79967 0
M  V30 25 H 4.03933 -0.656087 1.44303 0
M  V30 26 H 2.66045 1.53247 -0.316551 0
M  V30 27 H 3.94762 0.523078 -1.99288 0
M  V30 28 H 4.06001 -1.09569 -1.09314 0
M  V30 29 H 0.231602 1.0407 -0.40943 0
M  V30 30 H 0.866691 -4.14424 2.04982 0
M  V30 31 H 1.52557 -4.51961 0.436669 0
M  V30 32 H -2.20326 1.16434 1.25486 0
M  V30 33 H -2.87059 -0.392399 1.74918 0
M  V30 34 H -7.27555 0.404177 -0.335059 0
M  V30 35 H -6.24982 2.68755 -1.00754 0
M  V30 36 H -3.77761 2.67661 -0.378524 0
M  V30 37 H -2.56246 -1.64552 -1.65046 0
M  V30 38 H -3.5484 -0.172675 -1.58713 0
M  V30 39 H -1.85153 -0.157125 -2.28283 0
M  V30 END ATOM
M  V30 BEGIN BOND
M  V30 1 1 1 2
M  V30 2 1 2 3
M  V30 3 1 3 4
M  V30 4 1 4 5
M  V30 5 1 4 6
M  V30 6 2 6 7
M  V30 7 1 7 8
M  V30 8 2 8 9
M  V30 9 1 9 10
M  V30 10 2 10 11
M  V30 11 1 10 12
M  V30 12 1 8 13
M  V30 13 1 13 14
M  V30 14 1 14 15
M  V30 15 2 15 16
M  V30 16 1 16 17
M  V30 17 2 17 18
M  V30 18 1 18 19
M  V30 19 1 13 20
M  V30 20 1 5 2
M  V30 21 1 11 6
M  V30 22 1 19 15
M  V30 23 1 1 21
M  V30 24 1 1 22
M  V30 25 1 2 23
M  V30 26 1 3 24
M  V30 27 1 3 25
M  V30 28 1 4 26
M  V30 29 1 5 27
M  V30 30 1 5 28
M  V30 31 1 7 29
M  V30 32 1 12 30
M  V30 33 1 12 31
M  V30 34 1 14 32
M  V30 35 1 14 33
M  V30 36 1 17 34
M  V30 37 1 18 35
M  V30 38 1 19 36
M  V30 39 1 20 37
M  V30 40 1 20 38
M  V30 41 1 20 39
M  V30 END BOND
M  V30 END CTAB
M  END
