
     RDKit          3D

  0  0  0  0  0  0  0  0  0  0999 V3000
M  V30 BEGIN CTAB
M  V30 COUNTS 44 45 0 0 0
M  V30 BEGIN ATOM
M  V30 1 C -3.88842 -3.09403 -0.833192 0
M  V30 2 C -4.00707 -1.67518 -0.324188 0
M  V30 3 O -2.74693 -1.28575 0.111913 0
M  V30 4 P -2.74119 0.296419 0.711183 0
M  V30 5 O -2.72848 0.309264 2.23467 0
M  V30 6 C -1.28056 1.1213 0.0283163 0
M  V30 7 O -0.228831 1.20207 0.89665 0
M  V30 8 C 0.30772 0.0440288 1.35714 0
M  V30 9 C 0.91826 -0.877054 0.358234 0
M  V30 10 N 2.01794 -0.349345 -0.382686 0
M  V30 11 C 2.03244 0.300337 -1.53261 0
M  V30 12 N 3.288 0.62884 -1.8985 0
M  V30 13 C 4.09401 0.161632 -0.930565 0
M  V30 14 C 5.46157 0.196727 -0.756665 0
M  V30 15 N 6.31851 0.811225 -1.69868 0
M  V30 16 N 5.96866 -0.373822 0.342954 0
M  V30 17 C 5.22536 -0.978667 1.28749 0
M  V30 18 N 5.86993 -1.54755 2.40788 0
M  V30 19 N 3.89091 -1.00171 1.09793 0
M  V30 20 C 3.3176 -0.441078 0.00446827 0
M  V30 21 O -4.17174 1.07129 0.252253 0
M  V30 22 C -3.92475 2.27359 -0.383789 0
M  V30 23 C -5.1876 2.97886 -0.800642 0
M  V30 24 H -2.82298 -3.43522 -0.888789 0
M  V30 25 H -4.27363 -3.16202 -1.88932 0
M  V30 26 H -4.44251 -3.82332 -0.214628 0
M  V30 27 H -4.74695 -1.59014 0.504547 0
M  V30 28 H -4.26978 -1.01563 -1.18871 0
M  V30 29 H -1.00173 0.733471 -0.954914 0
M  V30 30 H -1.5974 2.19057 -0.165889 0
M  V30 31 H -0.449604 -0.559425 1.92544 0
M  V30 32 H 1.0606 0.32302 2.15204 0
M  V30 33 H 0.107078 -1.28176 -0.297871 0
M  V30 34 H 1.25489 -1.78627 0.942525 0
M  V30 35 H 1.17001 0.55332 -2.13031 0
M  V30 36 H 7.15185 1.38506 -1.44383 0
M  V30 37 H 6.15691 0.720159 -2.7447 0
M  V30 38 H 5.82344 -2.56949 2.5563 0
M  V30 39 H 6.38759 -0.960333 3.08251 0
M  V30 40 H -3.299 2.05047 -1.27155 0
M  V30 41 H -3.41472 2.94957 0.340632 0
M  V30 42 H -5.10179 3.29205 -1.86581 0
M  V30 43 H -6.08803 2.33661 -0.740621 0
M  V30 44 H -5.40958 3.8779 -0.189222 0
M  V30 END ATOM
M  V30 BEGIN BOND
M  V30 1 1 1 2
M  V30 2 1 2 3
M  V30 3 1 3 4
M  V30 4 2 4 5
M  V30 5 1 4 6
M  V30 6 1 6 7
M  V30 7 1 7 8
M  V30 8 1 8 9
M  V30 9 1 9 10
M  V30 10 1 10 11
M  V30 11 2 11 12
M  V30 12 1 12 13
M  V30 13 2 13 14
M  V30 14 1 14 15
M  V30 15 1 14 16
M  V30 16 2 16 17
M  V30 17 1 17 18
M  V30 18 1 17 19
M  V30 19 2 19 20
M  V30 20 1 4 21
M  V30 21 1 21 22
M  V30 22 1 22 23
M  V30 23 1 20 10
M  V30 24 1 20 13
M  V30 25 1 1 24
M  V30 26 1 1 25
M  V30 27 1 1 26
M  V30 28 1 2 27
M  V30 29 1 2 28
M  V30 30 1 6 29
M  V30 31 1 6 30
M  V30 32 1 8 31
M  V30 33 1 8 32
M  V30 34 1 9 33
M  V30 35 1 9 34
M  V30 36 1 11 35
M  V30 37 1 15 36
M  V30 38 1 15 37
M  V30 39 1 18 38
M  V30 40 1 18 39
M  V30 41 1 22 40
M  V30 42 1 22 41
M  V30 43 1 23 42
M  V30 44 1 23 43
M  V30 45 1 23 44
M  V30 END BOND
M  V30 END CTAB
M  END
