
     RDKit          3D

  0  0  0  0  0  0  0  0  0  0999 V3000
M  V30 BEGIN CTAB
M  V30 COUNTS 22 23 0 0 0
M  V30 BEGIN ATOM
M  V30 1 N -3.02093 -1.60116 -0.0684593 0
M  V30 2 C -1.75598 -0.946358 -0.0405221 0
M  V30 3 N -0.624578 -1.67608 0.0017464 0
M  V30 4 C 0.587624 -1.11696 0.0294107 0
M  V30 5 C 0.680135 0.275519 0.0137848 0
M  V30 6 C 1.90864 0.879093 0.0413447 0
M  V30 7 C 3.09809 0.14544 0.0853468 0
M  V30 8 C 3.00182 -1.2294 0.100636 0
M  V30 9 C 1.76 -1.83873 0.0727682 0
M  V30 10 C -0.44604 1.07009 -0.0291862 0
M  V30 11 N -0.413657 2.47534 -0.0467229 0
M  V30 12 C -1.6677 0.421045 -0.0559443 0
M  V30 13 C -2.89899 1.16136 -0.101243 0
M  V30 14 N -3.90366 1.75817 -0.129452 0
M  V30 15 H -3.12651 -2.60127 0.129711 0
M  V30 16 H -3.87401 -1.05615 -0.296535 0
M  V30 17 H 1.95689 1.94277 0.0287529 0
M  V30 18 H 4.05333 0.653517 0.106285 0
M  V30 19 H 3.88615 -1.85296 0.134351 0
M  V30 20 H 1.68398 -2.9167 0.0847679 0
M  V30 21 H -1.20811 2.99035 0.398806 0
M  V30 22 H 0.323511 3.06307 -0.459646 0
M  V30 END ATOM
M  V30 BEGIN BOND
M  V30 1 1 1 2
M  V30 2 2 2 3
M  V30 3 1 3 4
M  V30 4 2 4 5
M  V30 5 1 5 6
M  V30 6 2 6 7
M  V30 7 1 7 8
M  V30 8 2 8 9
M  V30 9 1 5 10
M  V30 10 1 10 11
M  V30 11 2 10 12
M  V30 12 1 12 13
M  V30 13 3 13 14
M  V30 14 1 12 2
M  V30 15 1 9 4
M  V30 16 1 1 15
M  V30 17 1 1 16
M  V30 18 1 6 17
M  V30 19 1 7 18
M  V30 20 1 8 19
M  V30 21 1 9 20
M  V30 22 1 11 21
M  V30 23 1 11 22
M  V30 END BOND
M  V30 END CTAB
M  END
