
     RDKit          3D

  0  0  0  0  0  0  0  0  0  0999 V3000
M  V30 BEGIN CTAB
M  V30 COUNTS 37 38 0 0 0
M  V30 BEGIN ATOM
M  V30 1 C -4.28236 -0.648702 0.923146 0
M  V30 2 C -3.02571 0.179109 1.03988 0
M  V30 3 C -2.03414 -0.136788 -0.0537165 0
M  V30 4 C -2.62575 0.133342 -1.39498 0
M  V30 5 C -3.05587 1.53904 -1.63651 0
M  V30 6 N -1.61637 -1.52637 -0.0234931 0
M  V30 7 C -0.433949 -1.58288 0.765918 0
M  V30 8 O 0.0957228 -2.62864 1.27217 0
M  V30 9 N 0.123546 -0.286027 0.94016 0
M  V30 10 C -0.778344 0.576321 0.215579 0
M  V30 11 O -0.519588 1.75455 -0.127482 0
M  V30 12 C 1.31196 0.0854497 1.66946 0
M  V30 13 C 2.51008 0.0528047 0.797321 0
M  V30 14 N 2.87728 1.16261 0.116448 0
M  V30 15 C 3.95984 1.17927 -0.688596 0
M  V30 16 N 4.35447 2.33775 -1.40766 0
M  V30 17 N 4.68237 0.0544241 -0.806357 0
M  V30 18 C 4.35375 -1.07929 -0.145127 0
M  V30 19 N 3.25886 -1.04314 0.649511 0
M  V30 20 N 5.13407 -2.2554 -0.286596 0
M  V30 21 H -4.08842 -1.67168 0.579402 0
M  V30 22 H -4.98539 -0.168625 0.189555 0
M  V30 23 H -4.7909 -0.735421 1.91047 0
M  V30 24 H -2.60152 0.0515524 2.04798 0
M  V30 25 H -3.28963 1.25305 0.943354 0
M  V30 26 H -3.53027 -0.516393 -1.49326 0
M  V30 27 H -1.90044 -0.187737 -2.16913 0
M  V30 28 H -2.5781 1.92641 -2.58273 0
M  V30 29 H -4.16657 1.62216 -1.82039 0
M  V30 30 H -2.84435 2.21851 -0.794755 0
M  V30 31 H -2.05298 -2.36321 -0.470723 0
M  V30 32 H 1.45765 -0.554231 2.57856 0
M  V30 33 H 1.12727 1.11604 2.08808 0
M  V30 34 H 4.11912 2.53126 -2.39754 0
M  V30 35 H 4.9251 3.04426 -0.893583 0
M  V30 36 H 5.02351 -2.93719 -1.06726 0
M  V30 37 H 5.88604 -2.49619 0.419468 0
M  V30 END ATOM
M  V30 BEGIN BOND
M  V30 1 1 1 2
M  V30 2 1 2 3
M  V30 3 1 3 4
M  V30 4 1 4 5
M  V30 5 1 3 6
M  V30 6 1 6 7
M  V30 7 2 7 8
M  V30 8 1 7 9
M  V30 9 1 9 10
M  V30 10 2 10 11
M  V30 11 1 9 12
M  V30 12 1 12 13
M  V30 13 2 13 14
M  V30 14 1 14 15
M  V30 15 1 15 16
M  V30 16 2 15 17
M  V30 17 1 17 18
M  V30 18 2 18 19
M  V30 19 1 18 20
M  V30 20 1 10 3
M  V30 21 1 19 13
M  V30 22 1 1 21
M  V30 23 1 1 22
M  V30 24 1 1 23
M  V30 25 1 2 24
M  V30 26 1 2 25
M  V30 27 1 4 26
M  V30 28 1 4 27
M  V30 29 1 5 28
M  V30 30 1 5 29
M  V30 31 1 5 30
M  V30 32 1 6 31
M  V30 33 1 12 32
M  V30 34 1 12 33
M  V30 35 1 16 34
M  V30 36 1 16 35
M  V30 37 1 20 36
M  V30 38 1 20 37
M  V30 END BOND
M  V30 END CTAB
M  END
