
     RDKit          3D

  0  0  0  0  0  0  0  0  0  0999 V3000
M  V30 BEGIN CTAB
M  V30 COUNTS 49 50 0 0 0
M  V30 BEGIN ATOM
M  V30 1 O -3.22507 2.64611 2.84722 0
M  V30 2 C -4.17238 1.83061 2.21335 0
M  V30 3 C -3.38414 0.688124 1.6076 0
M  V30 4 O -2.49192 1.16509 0.729342 0
M  V30 5 C -2.19186 0.437879 -0.403458 0 CFG=1
M  V30 6 O -1.38306 -0.595699 -0.0312214 0
M  V30 7 C -0.0946215 -0.948535 -0.109819 0
M  V30 8 C 0.232611 -2.20912 0.436149 0
M  V30 9 C 1.51412 -2.68041 0.417784 0
M  V30 10 C 2.55177 -1.9638 -0.127418 0
M  V30 11 C 2.26603 -0.743669 -0.661457 0
M  V30 12 C 0.957646 -0.251174 -0.648348 0
M  V30 13 N 0.767634 1.02055 -1.22172 0
M  V30 14 C 3.32025 0.0615844 -1.249 0
M  V30 15 O 3.05568 1.19469 -1.75542 0
M  V30 16 C 4.71018 -0.383414 -1.28432 0
M  V30 17 C 5.39089 -0.12535 0.0377891 0
M  V30 18 C 5.37402 1.30547 0.361613 0
M  V30 19 O 6.44854 1.96564 0.322469 0
M  V30 20 O 4.18051 1.9411 0.714442 0
M  V30 21 N 6.79889 -0.568964 -0.102488 0
M  V30 22 C -3.38653 -0.0720534 -1.14842 0
M  V30 23 C -4.634 -0.142565 -0.296262 0
M  V30 24 C -4.20795 -0.440581 1.11172 0 CFG=2
M  V30 25 O -5.25341 -0.783997 1.95823 0
M  V30 26 O -5.40036 1.017 -0.403656 0
M  V30 27 O -3.15032 -1.35721 -1.6229 0
M  V30 28 H -2.61775 3.09051 2.21953 0
M  V30 29 H -4.88015 1.52067 2.98339 0
M  V30 30 H -4.61177 2.46333 1.41813 0
M  V30 31 H -2.79447 0.275394 2.48864 0
M  V30 32 H -1.66425 1.13457 -1.07069 0
M  V30 33 H -0.534363 -2.82146 0.878704 0
M  V30 34 H 1.75933 -3.65396 0.841556 0
M  V30 35 H 3.55106 -2.36673 -0.126001 0
M  V30 36 H 0.597502 1.17966 -2.2397 0
M  V30 37 H 0.792536 1.87017 -0.622128 0
M  V30 38 H 4.80396 -1.46473 -1.53606 0
M  V30 39 H 5.27166 0.133877 -2.11774 0
M  V30 40 H 4.97385 -0.727519 0.856917 0
M  V30 41 H 4.0677 2.93662 0.68922 0
M  V30 42 H 6.77788 -1.59307 -0.0126253 0
M  V30 43 H 7.30312 -0.0892897 0.679331 0
M  V30 44 H -3.63929 0.56239 -2.01567 0
M  V30 45 H -5.30588 -0.975307 -0.612037 0
M  V30 46 H -3.52669 -1.33291 1.03988 0
M  V30 47 H -4.88789 -1.4403 2.62676 0
M  V30 48 H -6.35691 0.872158 -0.328416 0
M  V30 49 H -3.67236 -1.58139 -2.42973 0
M  V30 END ATOM
M  V30 BEGIN BOND
M  V30 1 1 1 2
M  V30 2 1 2 3
M  V30 3 1 3 4
M  V30 4 1 4 5
M  V30 5 1 5 6
M  V30 6 1 6 7
M  V30 7 2 7 8
M  V30 8 1 8 9
M  V30 9 2 9 10
M  V30 10 1 10 11
M  V30 11 2 11 12
M  V30 12 1 12 13
M  V30 13 1 11 14
M  V30 14 2 14 15
M  V30 15 1 14 16
M  V30 16 1 16 17
M  V30 17 1 17 18
M  V30 18 2 18 19
M  V30 19 1 18 20
M  V30 20 1 17 21
M  V30 21 1 5 22
M  V30 22 1 22 23
M  V30 23 1 23 24
M  V30 24 1 24 25
M  V30 25 1 23 26
M  V30 26 1 22 27
M  V30 27 1 24 3
M  V30 28 1 12 7
M  V30 29 1 1 28
M  V30 30 1 2 29
M  V30 31 1 2 30
M  V30 32 1 3 31
M  V30 33 1 5 32 CFG=3
M  V30 34 1 8 33
M  V30 35 1 9 34
M  V30 36 1 10 35
M  V30 37 1 13 36
M  V30 38 1 13 37
M  V30 39 1 16 38
M  V30 40 1 16 39
M  V30 41 1 17 40
M  V30 42 1 20 41
M  V30 43 1 21 42
M  V30 44 1 21 43
M  V30 45 1 22 44
M  V30 46 1 23 45
M  V30 47 1 24 46 CFG=3
M  V30 48 1 25 47
M  V30 49 1 26 48
M  V30 50 1 27 49
M  V30 END BOND
M  V30 END CTAB
M  END
