
     RDKit          3D

  0  0  0  0  0  0  0  0  0  0999 V3000
M  V30 BEGIN CTAB
M  V30 COUNTS 22 22 0 0 0
M  V30 BEGIN ATOM
M  V30 1 N -4.45166 0.000591288 0.0119083 0
M  V30 2 N -3.11429 0.397754 0.0532752 0
M  V30 3 C -2.07694 -0.533116 -0.11761 0
M  V30 4 O -2.33154 -1.7639 -0.313303 0
M  V30 5 C -0.660002 -0.126071 -0.0770887 0
M  V30 6 C -0.285093 1.19579 -0.0877711 0
M  V30 7 C 1.03796 1.5399 -0.0441804 0
M  V30 8 C 1.99813 0.553051 0.0105683 0
M  V30 9 C 1.6402 -0.78292 0.0220279 0
M  V30 10 C 0.325703 -1.12352 -0.0212156 0
M  V30 11 N 2.66525 -1.76268 0.0790169 0 CHG=1
M  V30 12 O 2.44467 -2.89621 0.590809 0
M  V30 13 O 3.93468 -1.56135 -0.401953 0 CHG=-1
M  V30 14 N 3.37069 0.918872 0.0555453 0
M  V30 15 H -5.09552 0.776553 0.263913 0
M  V30 16 H -4.55221 -0.755852 0.754314 0
M  V30 17 H -2.89345 1.38943 0.214485 0
M  V30 18 H -1.04375 1.97583 -0.133925 0
M  V30 19 H 1.32116 2.60451 -0.0533137 0
M  V30 20 H -0.0129394 -2.17434 -0.0141003 0
M  V30 21 H 4.01137 0.882638 -0.762795 0
M  V30 22 H 3.76759 1.24502 0.961973 0
M  V30 END ATOM
M  V30 BEGIN BOND
M  V30 1 1 1 2
M  V30 2 1 2 3
M  V30 3 2 3 4
M  V30 4 1 3 5
M  V30 5 2 5 6
M  V30 6 1 6 7
M  V30 7 2 7 8
M  V30 8 1 8 9
M  V30 9 2 9 10
M  V30 10 1 9 11
M  V30 11 2 11 12
M  V30 12 1 11 13
M  V30 13 1 8 14
M  V30 14 1 10 5
M  V30 15 1 1 15
M  V30 16 1 1 16
M  V30 17 1 2 17
M  V30 18 1 6 18
M  V30 19 1 7 19
M  V30 20 1 10 20
M  V30 21 1 14 21
M  V30 22 1 14 22
M  V30 END BOND
M  V30 END CTAB
M  END
