
     RDKit          3D

  0  0  0  0  0  0  0  0  0  0999 V3000
M  V30 BEGIN CTAB
M  V30 COUNTS 18 18 0 0 0
M  V30 BEGIN ATOM
M  V30 1 C 3.77404 -0.570422 0.63245 0
M  V30 2 S 2.84445 -0.0199487 -0.797534 0
M  V30 3 C 1.11105 0.20209 -0.455414 0
M  V30 4 N 0.70604 1.41001 -0.0248161 0
M  V30 5 C -0.580926 1.67335 0.258901 0
M  V30 6 C -1.55423 0.681363 0.11208 0
M  V30 7 N -2.91768 0.931174 0.403801 0
M  V30 8 C -1.0993 -0.543391 -0.331493 0
M  V30 9 N -2.04569 -1.61005 -0.505177 0
M  V30 10 N 0.199162 -0.766635 -0.604856 0
M  V30 11 H 3.29647 -0.365524 1.59357 0
M  V30 12 H 4.76092 -0.0246926 0.629314 0
M  V30 13 H 4.00664 -1.66092 0.581701 0
M  V30 14 H -0.899071 2.64283 0.603375 0
M  V30 15 H -3.16488 1.62009 1.11385 0
M  V30 16 H -3.67214 0.421364 -0.0967565 0
M  V30 17 H -3.0277 -1.51063 -0.201512 0
M  V30 18 H -1.73716 -2.51006 -0.949064 0
M  V30 END ATOM
M  V30 BEGIN BOND
M  V30 1 1 1 2
M  V30 2 1 2 3
M  V30 3 2 3 4
M  V30 4 1 4 5
M  V30 5 2 5 6
M  V30 6 1 6 7
M  V30 7 1 6 8
M  V30 8 1 8 9
M  V30 9 2 8 10
M  V30 10 1 10 3
M  V30 11 1 1 11
M  V30 12 1 1 12
M  V30 13 1 1 13
M  V30 14 1 5 14
M  V30 15 1 7 15
M  V30 16 1 7 16
M  V30 17 1 9 17
M  V30 18 1 9 18
M  V30 END BOND
M  V30 END CTAB
M  END
