
     RDKit          3D

  0  0  0  0  0  0  0  0  0  0999 V3000
M  V30 BEGIN CTAB
M  V30 COUNTS 22 23 0 0 0
M  V30 BEGIN ATOM
M  V30 1 N -4.24346 0.454147 -0.225275 0
M  V30 2 C -2.85103 0.204432 -0.203943 0
M  V30 3 C -1.99401 1.27967 -0.0383082 0
M  V30 4 C -0.626392 1.11234 -0.00768937 0
M  V30 5 C -0.102939 -0.15202 -0.144926 0
M  V30 6 C -0.952484 -1.22356 -0.30982 0
M  V30 7 C -2.33236 -1.07098 -0.342731 0
M  V30 8 C 1.3382 -0.366642 -0.117422 0
M  V30 9 C 2.03031 -1.55278 -0.238622 0
M  V30 10 N 3.34235 -1.26976 -0.154217 0
M  V30 11 C 3.43865 0.0715061 0.0158517 0
M  V30 12 O 2.22419 0.583408 0.033758 0
M  V30 13 N 4.58517 0.870714 0.158099 0
M  V30 14 H -4.70407 0.667612 -1.12709 0
M  V30 15 H -4.77201 0.417819 0.663144 0
M  V30 16 H -2.39546 2.29658 0.0728045 0
M  V30 17 H 0.0109978 1.99655 0.12599 0
M  V30 18 H -0.565683 -2.2267 -0.419776 0
M  V30 19 H -3.0207 -1.8779 -0.468729 0
M  V30 20 H 1.57267 -2.54403 -0.378818 0
M  V30 21 H 5.12269 0.845629 1.03881 0
M  V30 22 H 4.89538 1.48398 -0.611852 0
M  V30 END ATOM
M  V30 BEGIN BOND
M  V30 1 1 1 2
M  V30 2 2 2 3
M  V30 3 1 3 4
M  V30 4 2 4 5
M  V30 5 1 5 6
M  V30 6 2 6 7
M  V30 7 1 5 8
M  V30 8 2 8 9
M  V30 9 1 9 10
M  V30 10 2 10 11
M  V30 11 1 11 12
M  V30 12 1 11 13
M  V30 13 1 7 2
M  V30 14 1 12 8
M  V30 15 1 1 14
M  V30 16 1 1 15
M  V30 17 1 3 16
M  V30 18 1 4 17
M  V30 19 1 6 18
M  V30 20 1 7 19
M  V30 21 1 9 20
M  V30 22 1 13 21
M  V30 23 1 13 22
M  V30 END BOND
M  V30 END CTAB
M  END
