
     RDKit          3D

  0  0  0  0  0  0  0  0  0  0999 V3000
M  V30 BEGIN CTAB
M  V30 COUNTS 16 16 0 0 0
M  V30 BEGIN ATOM
M  V30 1 N 2.54059 -0.645301 -0.273102 0
M  V30 2 C 1.23347 -0.103561 -0.112819 0
M  V30 3 C 1.04167 1.25258 0.0559197 0
M  V30 4 C -0.22819 1.76926 0.210548 0
M  V30 5 Cl -0.428371 3.50319 0.422944 0
M  V30 6 C -1.35562 0.972973 0.205064 0
M  V30 7 C -1.15415 -0.381938 0.0357287 0
M  V30 8 N -2.30155 -1.23218 0.0256235 0
M  V30 9 C 0.111711 -0.907298 -0.119577 0
M  V30 10 Cl 0.364044 -2.64103 -0.335851 0
M  V30 11 H 3.07748 -0.651097 -1.14195 0
M  V30 12 H 3.01082 -1.08368 0.571518 0
M  V30 13 H 1.93094 1.87427 0.0594756 0
M  V30 14 H -2.34465 1.40115 0.328419 0
M  V30 15 H -2.74796 -1.55423 0.922592 0
M  V30 16 H -2.75024 -1.57312 -0.854531 0
M  V30 END ATOM
M  V30 BEGIN BOND
M  V30 1 1 1 2
M  V30 2 2 2 3
M  V30 3 1 3 4
M  V30 4 1 4 5
M  V30 5 2 4 6
M  V30 6 1 6 7
M  V30 7 1 7 8
M  V30 8 2 7 9
M  V30 9 1 9 10
M  V30 10 1 9 2
M  V30 11 1 1 11
M  V30 12 1 1 12
M  V30 13 1 3 13
M  V30 14 1 6 14
M  V30 15 1 8 15
M  V30 16 1 8 16
M  V30 END BOND
M  V30 END CTAB
M  END
