
     RDKit          3D

  0  0  0  0  0  0  0  0  0  0999 V3000
M  V30 BEGIN CTAB
M  V30 COUNTS 22 23 0 0 0
M  V30 BEGIN ATOM
M  V30 1 C -1.80029 -2.64666 -0.162149 0
M  V30 2 O -0.510149 -2.07789 -0.104067 0
M  V30 3 C -0.390438 -0.673558 -0.0410036 0
M  V30 4 C -1.50942 0.117339 -0.0367051 0
M  V30 5 C -1.48317 1.48791 0.0224534 0
M  V30 6 N -2.67729 2.23519 0.0229249 0
M  V30 7 C -0.241853 2.0758 0.0801885 0
M  V30 8 C 0.92552 1.29761 0.0776986 0
M  V30 9 C 0.881321 -0.0712925 0.0181427 0
M  V30 10 N 2.0184 -0.70168 0.0211796 0
M  V30 11 C 3.16099 -0.0500825 0.0790423 0
M  V30 12 S 2.60801 1.59148 0.134509 0
M  V30 13 N 4.50027 -0.536291 0.0935586 0
M  V30 14 H -2.45334 -2.27739 0.671508 0
M  V30 15 H -1.76117 -3.74867 -0.0758147 0
M  V30 16 H -2.32387 -2.41592 -1.11018 0
M  V30 17 H -2.49039 -0.383854 -0.0839856 0
M  V30 18 H -2.94674 2.87111 -0.760464 0
M  V30 19 H -3.34637 2.17869 0.819981 0
M  V30 20 H -0.102768 3.13855 0.129184 0
M  V30 21 H 5.11502 -0.268762 0.867803 0
M  V30 22 H 4.82773 -1.14162 -0.663808 0
M  V30 END ATOM
M  V30 BEGIN BOND
M  V30 1 1 1 2
M  V30 2 1 2 3
M  V30 3 2 3 4
M  V30 4 1 4 5
M  V30 5 1 5 6
M  V30 6 2 5 7
M  V30 7 1 7 8
M  V30 8 2 8 9
M  V30 9 1 9 10
M  V30 10 2 10 11
M  V30 11 1 11 12
M  V30 12 1 11 13
M  V30 13 1 9 3
M  V30 14 1 12 8
M  V30 15 1 1 14
M  V30 16 1 1 15
M  V30 17 1 1 16
M  V30 18 1 4 17
M  V30 19 1 6 18
M  V30 20 1 6 19
M  V30 21 1 7 20
M  V30 22 1 13 21
M  V30 23 1 13 22
M  V30 END BOND
M  V30 END CTAB
M  END
