
     RDKit          3D

  0  0  0  0  0  0  0  0  0  0999 V3000
M  V30 BEGIN CTAB
M  V30 COUNTS 24 25 0 0 0
M  V30 BEGIN ATOM
M  V30 1 N -3.4976 -1.93218 0.3958 0
M  V30 2 C -2.68874 -0.815966 0.101913 0
M  V30 3 N -3.20149 0.31322 -0.362268 0
M  V30 4 C -2.44571 1.37865 -0.644807 0
M  V30 5 N -3.01261 2.58128 -1.14176 0
M  V30 6 N -1.1191 1.28765 -0.446234 0
M  V30 7 C -0.532901 0.175417 0.0211463 0
M  V30 8 C -1.32335 -0.916589 0.30875 0
M  V30 9 N 0.865565 0.132111 0.211835 0
M  V30 10 C 1.53686 0.844417 1.1501 0
M  V30 11 C 2.86687 0.514639 0.998156 0
M  V30 12 C 2.96512 -0.401677 -0.0432688 0
M  V30 13 N 1.71385 -0.603648 -0.491937 0
M  V30 14 C 4.22883 -1.01278 -0.531525 0
M  V30 15 H -4.12552 -1.91058 1.21452 0
M  V30 16 H -3.45707 -2.76652 -0.210943 0
M  V30 17 H -3.92228 2.53088 -1.6476 0
M  V30 18 H -2.57558 3.51977 -1.03337 0
M  V30 19 H -0.862169 -1.81829 0.685877 0
M  V30 20 H 1.12318 1.52252 1.86208 0
M  V30 21 H 3.72393 0.874154 1.56093 0
M  V30 22 H 4.56537 -0.550024 -1.47842 0
M  V30 23 H 4.14801 -2.09704 -0.693769 0
M  V30 24 H 5.02652 -0.849419 0.214797 0
M  V30 END ATOM
M  V30 BEGIN BOND
M  V30 1 1 1 2
M  V30 2 2 2 3
M  V30 3 1 3 4
M  V30 4 1 4 5
M  V30 5 2 4 6
M  V30 6 1 6 7
M  V30 7 2 7 8
M  V30 8 1 7 9
M  V30 9 1 9 10
M  V30 10 2 10 11
M  V30 11 1 11 12
M  V30 12 2 12 13
M  V30 13 1 12 14
M  V30 14 1 8 2
M  V30 15 1 13 9
M  V30 16 1 1 15
M  V30 17 1 1 16
M  V30 18 1 5 17
M  V30 19 1 5 18
M  V30 20 1 8 19
M  V30 21 1 10 20
M  V30 22 1 11 21
M  V30 23 1 14 22
M  V30 24 1 14 23
M  V30 25 1 14 24
M  V30 END BOND
M  V30 END CTAB
M  END
