
     RDKit          3D

  0  0  0  0  0  0  0  0  0  0999 V3000
M  V30 BEGIN CTAB
M  V30 COUNTS 78 77 0 0 0
M  V30 BEGIN ATOM
M  V30 1 C -8.62366 -3.04625 0.879369 0 CFG=2
M  V30 2 C -8.63311 -2.59762 2.3329 0
M  V30 3 N -8.25023 -4.4312 0.838709 0
M  V30 4 C -7.76284 -2.17006 0.0799668 0
M  V30 5 O -6.85746 -2.80387 -0.615829 0
M  V30 6 N -7.77711 -0.785017 -0.0487467 0
M  V30 7 C -6.81732 -0.101812 -0.909897 0 CFG=1
M  V30 8 C -7.32454 0.98519 -1.76702 0
M  V30 9 C -7.93441 2.14276 -1.15883 0
M  V30 10 O -8.6032 2.06935 0.0588562 0
M  V30 11 O -7.896 3.28026 -1.71981 0
M  V30 12 C -5.73683 0.49521 0.0257057 0
M  V30 13 O -6.1686 1.00501 1.08539 0
M  V30 14 N -4.44677 0.352865 -0.458315 0
M  V30 15 C -3.18332 0.220486 -0.915897 0 CFG=1
M  V30 16 C -3.12897 0.369617 -2.46629 0
M  V30 17 O -1.81537 0.22444 -2.8546 0
M  V30 18 C -2.11636 1.13226 -0.327558 0
M  V30 19 O -2.44002 2.31932 -0.180636 0
M  V30 20 N -0.868637 0.623585 0.00668454 0
M  V30 21 C 0.225527 1.38182 0.518007 0 CFG=1
M  V30 22 C 0.342675 1.4808 2.0221 0
M  V30 23 C -0.804271 2.27084 2.56521 0
M  V30 24 O -0.766362 3.6883 2.36445 0
M  V30 25 O -1.79272 1.83156 3.17224 0
M  V30 26 C 1.51129 1.0999 -0.132009 0
M  V30 27 O 1.85885 -0.0496442 -0.54084 0
M  V30 28 N 2.4104 2.18018 -0.326488 0
M  V30 29 C 3.631 2.22816 -0.942372 0
M  V30 30 C 4.82002 1.52439 -0.632524 0
M  V30 31 O 5.83115 1.82013 -1.46151 0
M  V30 32 N 5.21123 0.592167 0.326558 0
M  V30 33 C 6.64926 0.114863 0.325652 0 CFG=1
M  V30 34 C 6.99129 -0.780756 -0.790509 0
M  V30 35 C 8.39933 -1.20273 -0.93958 0
M  V30 36 C 9.06087 -1.97398 0.119052 0
M  V30 37 C 10.5345 -2.20653 -0.308927 0
M  V30 38 N 11.2124 -2.92826 0.719957 0
M  V30 39 C 7.50523 1.24446 0.608192 0
M  V30 40 O 8.88478 1.28943 0.526949 0
M  V30 41 O 6.94214 2.354 0.977898 0
M  V30 42 H -9.66974 -2.97156 0.512052 0
M  V30 43 H -7.63899 -2.19299 2.63109 0
M  V30 44 H -9.4408 -1.88281 2.4634 0
M  V30 45 H -8.75848 -3.52426 2.95252 0
M  V30 46 H -8.46261 -4.89801 -0.0591765 0
M  V30 47 H -7.37986 -4.67171 1.30727 0
M  V30 48 H -8.47788 -0.218817 0.474963 0
M  V30 49 H -6.26114 -0.910963 -1.46401 0
M  V30 50 H -6.52038 1.39496 -2.45436 0
M  V30 51 H -8.00609 0.479156 -2.54612 0
M  V30 52 H -8.97164 2.97036 0.463335 0
M  V30 53 H -4.0035 0.75359 0.764851 0
M  V30 54 H -2.72022 -0.811836 -0.715798 0
M  V30 55 H -3.64667 1.26059 -2.81169 0
M  V30 56 H -3.69152 -0.550017 -2.81023 0
M  V30 57 H -1.8226 0.396793 -3.84894 0
M  V30 58 H -0.719436 -0.443992 -0.124989 0
M  V30 59 H -0.0716541 2.48476 0.191424 0
M  V30 60 H 0.177068 0.45373 2.49561 0
M  V30 61 H 1.30118 1.77657 2.40801 0
M  V30 62 H -0.0349481 4.04434 1.76396 0
M  V30 63 H 2.05262 3.12092 0.0973596 0
M  V30 64 H 3.87467 3.3627 -1.08193 0
M  V30 65 H 3.4205 2.01638 -2.10682 0
M  V30 66 H 4.52337 0.264056 1.01043 0
M  V30 67 H 6.62563 -0.56607 1.25474 0
M  V30 68 H 6.64751 -0.366305 -1.766 0
M  V30 69 H 6.38046 -1.75331 -0.731978 0
M  V30 70 H 8.41352 -1.88551 -1.87981 0
M  V30 71 H 9.0605 -0.355487 -1.31499 0
M  V30 72 H 9.10605 -1.56451 1.1225 0
M  V30 73 H 8.59702 -2.98721 0.188464 0
M  V30 74 H 11.0099 -1.25895 -0.600461 0
M  V30 75 H 10.5035 -2.86556 -1.17675 0
M  V30 76 H 10.7026 -2.75749 1.62011 0
M  V30 77 H 12.1843 -2.54334 0.832022 0
M  V30 78 H 9.444 1.95817 1.05162 0
M  V30 END ATOM
M  V30 BEGIN BOND
M  V30 1 1 1 2
M  V30 2 1 1 3
M  V30 3 1 1 4
M  V30 4 2 4 5
M  V30 5 1 4 6
M  V30 6 1 6 7
M  V30 7 1 7 8
M  V30 8 1 8 9
M  V30 9 1 9 10
M  V30 10 2 9 11
M  V30 11 1 7 12
M  V30 12 2 12 13
M  V30 13 1 12 14
M  V30 14 1 14 15
M  V30 15 1 15 16
M  V30 16 1 16 17
M  V30 17 1 15 18
M  V30 18 2 18 19
M  V30 19 1 18 20
M  V30 20 1 20 21
M  V30 21 1 21 22
M  V30 22 1 22 23
M  V30 23 1 23 24
M  V30 24 2 23 25
M  V30 25 1 21 26
M  V30 26 2 26 27
M  V30 27 1 26 28
M  V30 28 1 28 29
M  V30 29 1 29 30
M  V30 30 2 30 31
M  V30 31 1 30 32
M  V30 32 1 32 33
M  V30 33 1 33 34
M  V30 34 1 34 35
M  V30 35 1 35 36
M  V30 36 1 36 37
M  V30 37 1 37 38
M  V30 38 1 33 39
M  V30 39 1 39 40
M  V30 40 2 39 41
M  V30 41 1 1 42 CFG=3
M  V30 42 1 2 43
M  V30 43 1 2 44
M  V30 44 1 2 45
M  V30 45 1 3 46
M  V30 46 1 3 47
M  V30 47 1 6 48
M  V30 48 1 7 49 CFG=3
M  V30 49 1 8 50
M  V30 50 1 8 51
M  V30 51 1 10 52
M  V30 52 1 14 53
M  V30 53 1 15 54 CFG=3
M  V30 54 1 16 55
M  V30 55 1 16 56
M  V30 56 1 17 57
M  V30 57 1 20 58
M  V30 58 1 21 59 CFG=3
M  V30 59 1 22 60
M  V30 60 1 22 61
M  V30 61 1 24 62
M  V30 62 1 28 63
M  V30 63 1 29 64
M  V30 64 1 29 65
M  V30 65 1 32 66
M  V30 66 1 33 67 CFG=1
M  V30 67 1 34 68
M  V30 68 1 34 69
M  V30 69 1 35 70
M  V30 70 1 35 71
M  V30 71 1 36 72
M  V30 72 1 36 73
M  V30 73 1 37 74
M  V30 74 1 37 75
M  V30 75 1 38 76
M  V30 76 1 38 77
M  V30 77 1 40 78
M  V30 END BOND
M  V30 END CTAB
M  END
