
     RDKit          3D

  0  0  0  0  0  0  0  0  0  0999 V3000
M  V30 BEGIN CTAB
M  V30 COUNTS 29 30 0 0 0
M  V30 BEGIN ATOM
M  V30 1 N 5.19432 1.2892 0.520071 0
M  V30 2 C 4.14612 0.454137 0.0498095 0
M  V30 3 C 2.82299 0.793327 0.187182 0
M  V30 4 C 1.80957 -0.0172639 -0.269174 0
M  V30 5 C 2.12261 -1.21705 -0.889033 0
M  V30 6 C 3.44826 -1.55539 -1.02588 0
M  V30 7 C 4.46039 -0.74594 -0.570163 0
M  V30 8 C 0.416851 0.385596 -0.100542 0
M  V30 9 O 0.124321 1.45829 0.453336 0
M  V30 10 O -0.598158 -0.418342 -0.553548 0
M  V30 11 C -1.9376 -0.12258 -0.4395 0
M  V30 12 C -2.59121 -0.55589 0.699668 0
M  V30 13 C -3.93417 -0.30484 0.899351 0
M  V30 14 N -4.60646 -0.75064 2.07128 0
M  V30 15 C -4.60214 0.396545 -0.0827369 0
M  V30 16 C -3.94245 0.833385 -1.23156 0
M  V30 17 C -2.60612 0.577893 -1.4196 0
M  V30 18 H 5.82406 1.75115 -0.168359 0
M  V30 19 H 5.36412 1.46265 1.52871 0
M  V30 20 H 2.60872 1.74152 0.678077 0
M  V30 21 H 1.32758 -1.846 -1.24341 0
M  V30 22 H 3.67921 -2.51027 -1.51977 0
M  V30 23 H 5.49866 -1.03226 -0.688515 0
M  V30 24 H -2.08196 -1.10714 1.47939 0
M  V30 25 H -5.16648 -0.124835 2.6577 0
M  V30 26 H -4.50983 -1.7754 2.32844 0
M  V30 27 H -5.65935 0.632689 0.00221174 0
M  V30 28 H -4.49694 1.38151 -1.98284 0
M  V30 29 H -2.11489 0.925942 -2.31773 0
M  V30 END ATOM
M  V30 BEGIN BOND
M  V30 1 1 1 2
M  V30 2 2 2 3
M  V30 3 1 3 4
M  V30 4 2 4 5
M  V30 5 1 5 6
M  V30 6 2 6 7
M  V30 7 1 4 8
M  V30 8 2 8 9
M  V30 9 1 8 10
M  V30 10 1 10 11
M  V30 11 2 11 12
M  V30 12 1 12 13
M  V30 13 1 13 14
M  V30 14 2 13 15
M  V30 15 1 15 16
M  V30 16 2 16 17
M  V30 17 1 7 2
M  V30 18 1 17 11
M  V30 19 1 1 18
M  V30 20 1 1 19
M  V30 21 1 3 20
M  V30 22 1 5 21
M  V30 23 1 6 22
M  V30 24 1 7 23
M  V30 25 1 12 24
M  V30 26 1 14 25
M  V30 27 1 14 26
M  V30 28 1 15 27
M  V30 29 1 16 28
M  V30 30 1 17 29
M  V30 END BOND
M  V30 END CTAB
M  END
