
     RDKit          3D

  0  0  0  0  0  0  0  0  0  0999 V3000
M  V30 BEGIN CTAB
M  V30 COUNTS 46 45 0 0 0
M  V30 BEGIN ATOM
M  V30 1 O -1.84204 0.66371 1.11417 0
M  V30 2 C -2.13866 -0.304115 0.196256 0 CFG=2
M  V30 3 C -1.1146 -0.161372 -0.937673 0
M  V30 4 N 0.179633 -0.352537 -0.347427 0
M  V30 5 C 1.26686 -0.252095 -1.27322 0
M  V30 6 C 2.5541 -0.479975 -0.48151 0 CFG=1
M  V30 7 C 3.75872 -0.380071 -1.33822 0
M  V30 8 C 5.01831 -0.627608 -0.596401 0
M  V30 9 C 5.35257 0.265276 0.539091 0 CFG=1
M  V30 10 C 6.66528 -0.17422 1.09222 0
M  V30 11 O 7.57498 0.653201 1.22574 0
M  V30 12 O 6.83568 -1.48527 1.44074 0
M  V30 13 N 5.36854 1.65546 0.238127 0
M  V30 14 O 2.5548 0.542485 0.477232 0
M  V30 15 C -3.53098 -0.121361 -0.35788 0
M  V30 16 C -4.49078 -0.209629 0.81139 0
M  V30 17 C -5.89511 -0.0238438 0.241939 0 CFG=1
M  V30 18 C -6.90642 -0.0969296 1.32975 0
M  V30 19 O -6.9622 -1.15811 1.99417 0
M  V30 20 O -7.7299 0.996491 1.55634 0
M  V30 21 N -5.93906 1.25258 -0.442135 0
M  V30 22 H -2.12122 1.53363 0.855798 0
M  V30 23 H -2.00418 -1.29084 0.671285 0
M  V30 24 H -1.37724 -0.947457 -1.67272 0
M  V30 25 H -1.21757 0.813875 -1.43036 0
M  V30 26 H 0.179782 -1.18283 0.251867 0
M  V30 27 H 1.31508 0.78871 -1.65447 0
M  V30 28 H 1.19313 -0.91804 -2.13627 0
M  V30 29 H 2.48967 -1.4516 0.00221087 0
M  V30 30 H 3.662 -1.16331 -2.15465 0
M  V30 31 H 3.76893 0.617474 -1.87137 0
M  V30 32 H 5.89243 -0.663396 -1.32314 0
M  V30 33 H 5.03984 -1.6833 -0.173591 0
M  V30 34 H 4.64902 0.127634 1.41942 0
M  V30 35 H 6.8068 -2.18977 0.713381 0
M  V30 36 H 4.85481 2.26207 0.882444 0
M  V30 37 H 5.35672 1.90585 -0.751391 0
M  V30 38 H 2.13721 0.226975 1.30287 0
M  V30 39 H -3.59084 0.886324 -0.792655 0
M  V30 40 H -3.72727 -0.934406 -1.06769 0
M  V30 41 H -4.39497 -1.17064 1.34117 0
M  V30 42 H -4.26465 0.589569 1.54879 0
M  V30 43 H -6.04191 -0.881296 -0.470071 0
M  V30 44 H -8.30004 1.39123 0.811504 0
M  V30 45 H -5.35703 1.95293 0.0952596 0
M  V30 46 H -5.52824 1.17854 -1.39676 0
M  V30 END ATOM
M  V30 BEGIN BOND
M  V30 1 1 1 2
M  V30 2 1 2 3
M  V30 3 1 3 4
M  V30 4 1 4 5
M  V30 5 1 5 6
M  V30 6 1 6 7
M  V30 7 1 7 8
M  V30 8 1 8 9
M  V30 9 1 9 10
M  V30 10 2 10 11
M  V30 11 1 10 12
M  V30 12 1 9 13
M  V30 13 1 6 14
M  V30 14 1 2 15
M  V30 15 1 15 16
M  V30 16 1 16 17
M  V30 17 1 17 18
M  V30 18 2 18 19
M  V30 19 1 18 20
M  V30 20 1 17 21
M  V30 21 1 1 22
M  V30 22 1 2 23 CFG=1
M  V30 23 1 3 24
M  V30 24 1 3 25
M  V30 25 1 4 26
M  V30 26 1 5 27
M  V30 27 1 5 28
M  V30 28 1 6 29 CFG=1
M  V30 29 1 7 30
M  V30 30 1 7 31
M  V30 31 1 8 32
M  V30 32 1 8 33
M  V30 33 1 9 34 CFG=1
M  V30 34 1 12 35
M  V30 35 1 13 36
M  V30 36 1 13 37
M  V30 37 1 14 38
M  V30 38 1 15 39
M  V30 39 1 15 40
M  V30 40 1 16 41
M  V30 41 1 16 42
M  V30 42 1 17 43 CFG=3
M  V30 43 1 20 44
M  V30 44 1 21 45
M  V30 45 1 21 46
M  V30 END BOND
M  V30 END CTAB
M  END
