
     RDKit          3D

  0  0  0  0  0  0  0  0  0  0999 V3000
M  V30 BEGIN CTAB
M  V30 COUNTS 57 60 0 0 0
M  V30 BEGIN ATOM
M  V30 1 N -5.22325 -4.64665 0.520169 0
M  V30 2 C -4.10616 -3.80515 0.252306 0
M  V30 3 N -4.16632 -2.46829 0.149519 0
M  V30 4 C -3.06027 -1.6959 0.00805172 0
M  V30 5 C -2.98075 -0.242017 0.171491 0
M  V30 6 O -3.36056 0.537394 -0.932305 0
M  V30 7 C -3.20355 1.87757 -0.472904 0
M  V30 8 C -4.50798 2.36834 0.0972151 0
M  V30 9 C -4.55644 3.7202 0.746179 0
M  V30 10 C -5.80742 4.00992 -0.0526534 0
M  V30 11 C -5.20309 3.15842 -1.12836 0
M  V30 12 C -1.86896 -2.40401 -0.0302192 0
M  V30 13 C -1.82925 -3.77688 0.0756039 0
M  V30 14 N -0.555498 -4.38554 -0.00126707 0
M  V30 15 N -2.92243 -4.49039 0.217183 0
M  V30 16 C -0.585255 -1.72526 -0.194505 0
M  V30 17 C -0.218552 -1.0921 -1.34951 0
M  V30 18 C 1.05561 -0.534886 -1.49418 0
M  V30 19 C 1.96849 -0.628963 -0.446865 0
M  V30 20 N 3.29523 -0.152818 -0.527448 0
M  V30 21 C 3.99963 0.230626 0.651556 0
M  V30 22 C 5.42347 0.558127 0.376525 0
M  V30 23 C 6.1437 -0.026936 -0.627611 0
M  V30 24 C 7.43766 0.380661 -0.813976 0
M  V30 25 C 8.05875 1.33772 -0.0561395 0
M  V30 26 C 7.28293 1.90217 0.953874 0
M  V30 27 C 5.98141 1.52384 1.17785 0
M  V30 28 C 9.42681 1.76748 -0.268857 0
M  V30 29 N 10.4936 2.13281 -0.449571 0
M  V30 30 C 1.59149 -1.27193 0.737487 0
M  V30 31 C 0.332204 -1.80237 0.839805 0
M  V30 32 H -6.01626 -4.71739 -0.103422 0
M  V30 33 H -5.21124 -5.20235 1.39932 0
M  V30 34 H -2.11924 0.111025 0.73116 0
M  V30 35 H -3.90981 -0.0530326 0.919425 0
M  V30 36 H -2.85518 2.46429 -1.31678 0
M  V30 37 H -2.42601 1.89851 0.321382 0
M  V30 38 H -5.25107 1.67301 0.413148 0
M  V30 39 H -3.75529 4.42057 0.471298 0
M  V30 40 H -4.77341 3.67881 1.85631 0
M  V30 41 H -5.93102 5.0836 -0.313869 0
M  V30 42 H -6.69003 3.5158 0.360413 0
M  V30 43 H -5.79286 2.49836 -1.72207 0
M  V30 44 H -4.38356 3.72982 -1.66163 0
M  V30 45 H -0.254162 -4.61843 -1.00004 0
M  V30 46 H 0.10353 -4.60504 0.748748 0
M  V30 47 H -0.883328 -0.990332 -2.1842 0
M  V30 48 H 1.3363 -0.0361473 -2.39409 0
M  V30 49 H 3.81761 -0.0649847 -1.44397 0
M  V30 50 H 3.48207 1.17903 1.01579 0
M  V30 51 H 3.95092 -0.463739 1.50404 0
M  V30 52 H 5.6743 -0.811744 -1.24909 0
M  V30 53 H 8.02789 -0.0827424 -1.62438 0
M  V30 54 H 7.70458 2.68155 1.61892 0
M  V30 55 H 5.41235 1.98071 1.98897 0
M  V30 56 H 2.31023 -1.32601 1.53276 0
M  V30 57 H 0.0974631 -2.29832 1.7612 0
M  V30 END ATOM
M  V30 BEGIN BOND
M  V30 1 1 1 2
M  V30 2 2 2 3
M  V30 3 1 3 4
M  V30 4 1 4 5
M  V30 5 1 5 6
M  V30 6 1 6 7
M  V30 7 1 7 8
M  V30 8 1 8 9
M  V30 9 1 9 10
M  V30 10 1 10 11
M  V30 11 2 4 12
M  V30 12 1 12 13
M  V30 13 1 13 14
M  V30 14 2 13 15
M  V30 15 1 12 16
M  V30 16 2 16 17
M  V30 17 1 17 18
M  V30 18 2 18 19
M  V30 19 1 19 20
M  V30 20 1 20 21
M  V30 21 1 21 22
M  V30 22 2 22 23
M  V30 23 1 23 24
M  V30 24 2 24 25
M  V30 25 1 25 26
M  V30 26 2 26 27
M  V30 27 1 25 28
M  V30 28 3 28 29
M  V30 29 1 19 30
M  V30 30 2 30 31
M  V30 31 1 15 2
M  V30 32 1 31 16
M  V30 33 1 11 8
M  V30 34 1 27 22
M  V30 35 1 1 32
M  V30 36 1 1 33
M  V30 37 1 5 34
M  V30 38 1 5 35
M  V30 39 1 7 36
M  V30 40 1 7 37
M  V30 41 1 8 38
M  V30 42 1 9 39
M  V30 43 1 9 40
M  V30 44 1 10 41
M  V30 45 1 10 42
M  V30 46 1 11 43
M  V30 47 1 11 44
M  V30 48 1 14 45
M  V30 49 1 14 46
M  V30 50 1 17 47
M  V30 51 1 18 48
M  V30 52 1 20 49
M  V30 53 1 21 50
M  V30 54 1 21 51
M  V30 55 1 23 52
M  V30 56 1 24 53
M  V30 57 1 26 54
M  V30 58 1 27 55
M  V30 59 1 30 56
M  V30 60 1 31 57
M  V30 END BOND
M  V30 END CTAB
M  END
