
     RDKit          3D

  0  0  0  0  0  0  0  0  0  0999 V3000
M  V30 BEGIN CTAB
M  V30 COUNTS 24 23 0 0 0
M  V30 BEGIN ATOM
M  V30 1 C 2.25305 0.407748 -0.0395595 0
M  V30 2 C 1.11099 -0.520225 -0.313355 0
M  V30 3 C -0.166312 -0.116198 0.340813 0
M  V30 4 C 0.111059 -0.0962097 1.85212 0
M  V30 5 C -0.608889 1.2728 -0.0159501 0
M  V30 6 N -0.839537 1.49376 -1.4099 0
M  V30 7 C -1.20575 -1.16051 0.100971 0
M  V30 8 N -1.51341 -1.40355 -1.27422 0
M  V30 9 H 1.9771 1.30455 0.549723 0
M  V30 10 H 3.04428 -0.131617 0.519173 0
M  V30 11 H 2.7362 0.765767 -0.984747 0
M  V30 12 H 1.04183 -0.651271 -1.41625 0
M  V30 13 H 1.36729 -1.55172 0.0683195 0
M  V30 14 H -0.672885 0.552714 2.29455 0
M  V30 15 H 1.12438 0.246174 2.06987 0
M  V30 16 H -0.0785325 -1.11823 2.24183 0
M  V30 17 H -1.58091 1.51082 0.506673 0
M  V30 18 H 0.0926524 2.05268 0.342953 0
M  V30 19 H -0.845563 2.5364 -1.55531 0
M  V30 20 H -1.79819 1.18018 -1.7325 0
M  V30 21 H -2.1184 -1.02055 0.733835 0
M  V30 22 H -0.766793 -2.12752 0.494781 0
M  V30 23 H -1.79284 -2.39613 -1.40257 0
M  V30 24 H -0.870811 -1.02985 -1.97126 0
M  V30 END ATOM
M  V30 BEGIN BOND
M  V30 1 1 1 2
M  V30 2 1 2 3
M  V30 3 1 3 4
M  V30 4 1 3 5
M  V30 5 1 5 6
M  V30 6 1 3 7
M  V30 7 1 7 8
M  V30 8 1 1 9
M  V30 9 1 1 10
M  V30 10 1 1 11
M  V30 11 1 2 12
M  V30 12 1 2 13
M  V30 13 1 4 14
M  V30 14 1 4 15
M  V30 15 1 4 16
M  V30 16 1 5 17
M  V30 17 1 5 18
M  V30 18 1 6 19
M  V30 19 1 6 20
M  V30 20 1 7 21
M  V30 21 1 7 22
M  V30 22 1 8 23
M  V30 23 1 8 24
M  V30 END BOND
M  V30 END CTAB
M  END
