
     RDKit          3D

  0  0  0  0  0  0  0  0  0  0999 V3000
M  V30 BEGIN CTAB
M  V30 COUNTS 35 35 0 0 0
M  V30 BEGIN ATOM
M  V30 1 C -4.24823 -0.394895 1.88607 0
M  V30 2 C -4.62984 -0.271199 0.430005 0
M  V30 3 C -3.62171 -0.956922 -0.436891 0
M  V30 4 C -2.27287 -0.291471 -0.200984 0
M  V30 5 O -2.28011 0.643587 0.621488 0
M  V30 6 N -1.14857 -0.750888 -0.894304 0
M  V30 7 C 0.139104 -0.238144 -0.768215 0
M  V30 8 C 1.04834 -0.59387 -1.77759 0
M  V30 9 C 2.32902 -0.121436 -1.67661 0
M  V30 10 C 2.74292 0.677937 -0.632397 0
M  V30 11 C 1.87756 1.044 0.37183 0
M  V30 12 C 0.565818 0.556813 0.263723 0
M  V30 13 C 4.15359 1.17051 -0.564955 0
M  V30 14 S 5.09445 -0.0533191 0.352315 0
M  V30 15 O 4.51382 -0.209412 1.74379 0
M  V30 16 O 4.95825 -1.38877 -0.314806 0
M  V30 17 N 6.74352 0.441504 0.476649 0
M  V30 18 N -5.96376 -0.716468 0.163976 0
M  V30 19 H -4.04618 0.597564 2.33853 0
M  V30 20 H -3.37315 -1.07186 2.0114 0
M  V30 21 H -5.06141 -0.844509 2.49376 0
M  V30 22 H -4.60063 0.826701 0.166262 0
M  V30 23 H -3.53945 -2.04008 -0.166277 0
M  V30 24 H -3.89405 -0.873912 -1.4997 0
M  V30 25 H -1.3087 -1.56286 -1.56569 0
M  V30 26 H 0.74782 -1.22558 -2.61654 0
M  V30 27 H 3.04105 -0.401519 -2.46946 0
M  V30 28 H 2.18714 1.6705 1.1976 0
M  V30 29 H -0.0698609 0.86268 1.08351 0
M  V30 30 H 4.60542 1.25535 -1.56029 0
M  V30 31 H 4.15383 2.12493 -0.00850332 0
M  V30 32 H 7.14633 -0.0246967 1.32095 0
M  V30 33 H 6.7416 1.46584 0.684085 0
M  V30 34 H -6.07821 -1.10299 -0.811358 0
M  V30 35 H -6.65285 0.0431241 0.358626 0
M  V30 END ATOM
M  V30 BEGIN BOND
M  V30 1 1 1 2
M  V30 2 1 2 3
M  V30 3 1 3 4
M  V30 4 2 4 5
M  V30 5 1 4 6
M  V30 6 1 6 7
M  V30 7 2 7 8
M  V30 8 1 8 9
M  V30 9 2 9 10
M  V30 10 1 10 11
M  V30 11 2 11 12
M  V30 12 1 10 13
M  V30 13 1 13 14
M  V30 14 2 14 15
M  V30 15 2 14 16
M  V30 16 1 14 17
M  V30 17 1 2 18
M  V30 18 1 12 7
M  V30 19 1 1 19
M  V30 20 1 1 20
M  V30 21 1 1 21
M  V30 22 1 2 22
M  V30 23 1 3 23
M  V30 24 1 3 24
M  V30 25 1 6 25
M  V30 26 1 8 26
M  V30 27 1 9 27
M  V30 28 1 11 28
M  V30 29 1 12 29
M  V30 30 1 13 30
M  V30 31 1 13 31
M  V30 32 1 17 32
M  V30 33 1 17 33
M  V30 34 1 18 34
M  V30 35 1 18 35
M  V30 END BOND
M  V30 END CTAB
M  END
