
     RDKit          3D

  0  0  0  0  0  0  0  0  0  0999 V3000
M  V30 BEGIN CTAB
M  V30 COUNTS 66 70 0 0 0
M  V30 BEGIN ATOM
M  V30 1 N -6.97204 2.06503 -2.79886 0
M  V30 2 C -7.0134 1.11848 -1.75005 0
M  V30 3 N -8.20129 0.768526 -1.19592 0
M  V30 4 C -8.28149 -0.125361 -0.199669 0
M  V30 5 N -9.5628 -0.436036 0.324448 0
M  V30 6 C -7.14429 -0.720163 0.294299 0
M  V30 7 C -5.94146 -0.380765 -0.250297 0
M  V30 8 N -5.91561 0.523996 -1.25082 0
M  V30 9 N -4.94219 -1.07184 0.369305 0
M  V30 10 C -5.56876 -1.82603 1.28912 0
M  V30 11 N -6.89839 -1.62735 1.25889 0
M  V30 12 C -3.54079 -0.976735 0.0655846 0 CFG=2
M  V30 13 C -2.81829 -2.29815 0.346085 0
M  V30 14 C -1.41286 -2.12798 -0.195414 0
M  V30 15 N -0.757261 -1.09088 0.563221 0
M  V30 16 C -1.58765 -0.304327 1.46141 0
M  V30 17 C -2.85017 0.172612 0.731529 0 CFG=2
M  V30 18 C -3.72603 0.81673 1.80508 0
M  V30 19 O -2.53314 1.18118 -0.177259 0
M  V30 20 C 0.632064 -0.816263 0.468558 0
M  V30 21 O 1.29572 -1.52538 -0.320456 0
M  V30 22 C 1.30608 0.234626 1.237 0
M  V30 23 C 2.72498 0.495962 0.908612 0
M  V30 24 C 3.02759 0.949697 -0.473647 0
M  V30 25 N 4.47111 1.17738 -0.663697 0
M  V30 26 C 5.17971 2.39236 -0.446055 0
M  V30 27 O 4.68267 3.49708 -0.0470205 0
M  V30 28 N 6.55495 2.18184 -0.747759 0
M  V30 29 C 6.76086 0.757114 -0.69684 0
M  V30 30 C 5.43931 0.230381 -1.10129 0
M  V30 31 O 5.13419 -0.827297 -1.71006 0
M  V30 32 C 7.76141 0.29624 -1.74235 0
M  V30 33 C 8.20955 -1.03603 -1.16167 0
M  V30 34 C 8.40583 -0.661673 0.298516 0
M  V30 35 C 7.22474 0.260036 0.624529 0
M  V30 36 H -6.48913 2.9656 -2.64333 0
M  V30 37 H -7.42247 1.84697 -3.70371 0
M  V30 38 H -9.71861 -0.463635 1.34615 0
M  V30 39 H -10.3482 -0.637134 -0.35799 0
M  V30 40 H -5.06293 -2.50956 1.97038 0
M  V30 41 H -3.44908 -0.826189 -1.0349 0
M  V30 42 H -2.85177 -2.57173 1.39969 0
M  V30 43 H -3.3627 -3.06605 -0.255219 0
M  V30 44 H -1.52465 -1.73158 -1.2385 0
M  V30 45 H -0.839752 -3.08401 -0.189238 0
M  V30 46 H -1.06871 0.541822 1.91096 0
M  V30 47 H -1.94959 -0.968553 2.28105 0
M  V30 48 H -3.06683 1.51503 2.36299 0
M  V30 49 H -4.52763 1.43153 1.35016 0
M  V30 50 H -4.09634 0.0726187 2.52373 0
M  V30 51 H -2.46197 2.02063 0.33234 0
M  V30 52 H 1.27696 0.00931655 2.34762 0
M  V30 53 H 0.718035 1.2034 1.18317 0
M  V30 54 H 3.36262 -0.371444 1.22842 0
M  V30 55 H 3.06218 1.32445 1.5997 0
M  V30 56 H 2.53208 1.88333 -0.761588 0
M  V30 57 H 2.73716 0.176809 -1.20221 0
M  V30 58 H 7.26183 2.93704 -0.962391 0
M  V30 59 H 8.59029 1.00653 -1.83951 0
M  V30 60 H 7.23444 0.124185 -2.70096 0
M  V30 61 H 9.15646 -1.33865 -1.63309 0
M  V30 62 H 7.38357 -1.74462 -1.29207 0
M  V30 63 H 9.36556 -0.132053 0.36326 0
M  V30 64 H 8.4204 -1.54996 0.962172 0
M  V30 65 H 6.45953 -0.398294 1.08633 0
M  V30 66 H 7.53644 1.06718 1.31555 0
M  V30 END ATOM
M  V30 BEGIN BOND
M  V30 1 1 1 2
M  V30 2 2 2 3
M  V30 3 1 3 4
M  V30 4 1 4 5
M  V30 5 2 4 6
M  V30 6 1 6 7
M  V30 7 2 7 8
M  V30 8 1 7 9
M  V30 9 1 9 10
M  V30 10 2 10 11
M  V30 11 1 9 12
M  V30 12 1 12 13
M  V30 13 1 13 14
M  V30 14 1 14 15
M  V30 15 1 15 16
M  V30 16 1 16 17
M  V30 17 1 17 18
M  V30 18 1 17 19 CFG=3
M  V30 19 1 15 20
M  V30 20 2 20 21
M  V30 21 1 20 22
M  V30 22 1 22 23
M  V30 23 1 23 24
M  V30 24 1 24 25
M  V30 25 1 25 26
M  V30 26 2 26 27
M  V30 27 1 26 28
M  V30 28 1 28 29
M  V30 29 1 29 30
M  V30 30 2 30 31
M  V30 31 1 29 32
M  V30 32 1 32 33
M  V30 33 1 33 34
M  V30 34 1 34 35
M  V30 35 1 8 2
M  V30 36 1 17 12
M  V30 37 1 30 25
M  V30 38 1 11 6
M  V30 39 1 35 29
M  V30 40 1 1 36
M  V30 41 1 1 37
M  V30 42 1 5 38
M  V30 43 1 5 39
M  V30 44 1 10 40
M  V30 45 1 12 41 CFG=3
M  V30 46 1 13 42
M  V30 47 1 13 43
M  V30 48 1 14 44
M  V30 49 1 14 45
M  V30 50 1 16 46
M  V30 51 1 16 47
M  V30 52 1 18 48
M  V30 53 1 18 49
M  V30 54 1 18 50
M  V30 55 1 19 51
M  V30 56 1 22 52
M  V30 57 1 22 53
M  V30 58 1 23 54
M  V30 59 1 23 55
M  V30 60 1 24 56
M  V30 61 1 24 57
M  V30 62 1 28 58
M  V30 63 1 32 59
M  V30 64 1 32 60
M  V30 65 1 33 61
M  V30 66 1 33 62
M  V30 67 1 34 63
M  V30 68 1 34 64
M  V30 69 1 35 65
M  V30 70 1 35 66
M  V30 END BOND
M  V30 END CTAB
M  END
