
     RDKit          3D

  0  0  0  0  0  0  0  0  0  0999 V3000
M  V30 BEGIN CTAB
M  V30 COUNTS 41 43 0 0 0
M  V30 BEGIN ATOM
M  V30 1 C 6.45159 2.2555 -0.748972 0
M  V30 2 O 5.93424 0.990201 -0.427484 0
M  V30 3 C 4.58311 0.800956 -0.347169 0
M  V30 4 C 3.7346 1.8611 -0.584095 0
M  V30 5 C 2.37201 1.67427 -0.504078 0
M  V30 6 C 1.83157 0.419045 -0.184458 0
M  V30 7 C 0.379123 0.324559 -0.124678 0
M  V30 8 C -0.17843 -0.824087 0.169418 0
M  V30 9 C -1.63491 -0.971374 0.24217 0
M  V30 10 C -2.51371 0.0526071 0.0147925 0
M  V30 11 C -3.89944 -0.131004 0.0946137 0
M  V30 12 C -4.76551 0.919907 -0.13965 0
M  V30 13 N -4.20896 2.17318 -0.459247 0
M  V30 14 N -6.0949 0.716201 -0.0563564 0
M  V30 15 C -6.57267 -0.488301 0.249349 0
M  V30 16 N -7.99063 -0.716284 0.340797 0
M  V30 17 N -5.73561 -1.51548 0.478562 0
M  V30 18 C -4.40333 -1.35651 0.406099 0
M  V30 19 N -3.53936 -2.36237 0.629436 0
M  V30 20 C -2.20783 -2.20401 0.557142 0
M  V30 21 C 2.71199 -0.599478 0.0415166 0
M  V30 22 C 4.08633 -0.44157 -0.0317488 0
M  V30 23 O 4.99118 -1.45773 0.193031 0
M  V30 24 C 4.45459 -2.73906 0.518916 0
M  V30 25 H 7.56906 2.16906 -0.694578 0
M  V30 26 H 6.08346 3.03929 -0.0367701 0
M  V30 27 H 6.16593 2.59403 -1.77203 0
M  V30 28 H 4.13122 2.84119 -0.833015 0
M  V30 29 H 1.69652 2.4892 -0.685616 0
M  V30 30 H -0.242463 1.20666 -0.323968 0
M  V30 31 H 0.412408 -1.71931 0.372683 0
M  V30 32 H -2.18917 1.03847 -0.23374 0
M  V30 33 H -4.15172 2.89946 0.265229 0
M  V30 34 H -3.86366 2.35796 -1.40901 0
M  V30 35 H -8.61761 0.0219778 0.737093 0
M  V30 36 H -8.4246 -1.59798 0.0244418 0
M  V30 37 H -1.52929 -3.02408 0.739885 0
M  V30 38 H 2.33021 -1.57454 0.288836 0
M  V30 39 H 3.74885 -2.98498 -0.305068 0
M  V30 40 H 5.23139 -3.49055 0.663783 0
M  V30 41 H 3.86438 -2.64613 1.45303 0
M  V30 END ATOM
M  V30 BEGIN BOND
M  V30 1 1 1 2
M  V30 2 1 2 3
M  V30 3 2 3 4
M  V30 4 1 4 5
M  V30 5 2 5 6
M  V30 6 1 6 7
M  V30 7 2 7 8
M  V30 8 1 8 9
M  V30 9 2 9 10
M  V30 10 1 10 11
M  V30 11 2 11 12
M  V30 12 1 12 13
M  V30 13 1 12 14
M  V30 14 2 14 15
M  V30 15 1 15 16
M  V30 16 1 15 17
M  V30 17 2 17 18
M  V30 18 1 18 19
M  V30 19 2 19 20
M  V30 20 1 6 21
M  V30 21 2 21 22
M  V30 22 1 22 23
M  V30 23 1 23 24
M  V30 24 1 22 3
M  V30 25 1 20 9
M  V30 26 1 18 11
M  V30 27 1 1 25
M  V30 28 1 1 26
M  V30 29 1 1 27
M  V30 30 1 4 28
M  V30 31 1 5 29
M  V30 32 1 7 30
M  V30 33 1 8 31
M  V30 34 1 10 32
M  V30 35 1 13 33
M  V30 36 1 13 34
M  V30 37 1 16 35
M  V30 38 1 16 36
M  V30 39 1 20 37
M  V30 40 1 21 38
M  V30 41 1 24 39
M  V30 42 1 24 40
M  V30 43 1 24 41
M  V30 END BOND
M  V30 END CTAB
M  END
