
     RDKit          3D

  0  0  0  0  0  0  0  0  0  0999 V3000
M  V30 BEGIN CTAB
M  V30 COUNTS 20 20 0 0 0
M  V30 BEGIN ATOM
M  V30 1 N -3.22275 -0.920063 1.9813 0
M  V30 2 C -2.58868 -1.09108 1.03567 0
M  V30 3 C -1.77846 -1.29183 -0.159817 0
M  V30 4 C -0.530069 -0.47373 -0.12559 0
M  V30 5 C 0.70747 -1.00812 0.16042 0
M  V30 6 C 1.85207 -0.233851 0.193322 0
M  V30 7 N 3.1182 -0.824525 0.494211 0
M  V30 8 C 1.79389 1.11968 -0.0632939 0
M  V30 9 C 0.564691 1.66741 -0.350643 0
M  V30 10 C -0.593592 0.883219 -0.383286 0
M  V30 11 N -1.86159 1.43105 -0.675335 0
M  V30 12 Cl 0.42622 3.38572 -0.684943 0
M  V30 13 H -1.45992 -2.37252 -0.244339 0
M  V30 14 H -2.35361 -1.11263 -1.08863 0
M  V30 15 H 0.750783 -2.0908 0.358887 0
M  V30 16 H 3.65884 -1.17759 -0.326216 0
M  V30 17 H 3.45361 -0.887385 1.4571 0
M  V30 18 H 2.70462 1.73331 -0.0398309 0
M  V30 19 H -2.22849 1.41885 -1.63475 0
M  V30 20 H -2.4132 1.84491 0.0957642 0
M  V30 END ATOM
M  V30 BEGIN BOND
M  V30 1 3 1 2
M  V30 2 1 2 3
M  V30 3 1 3 4
M  V30 4 2 4 5
M  V30 5 1 5 6
M  V30 6 1 6 7
M  V30 7 2 6 8
M  V30 8 1 8 9
M  V30 9 2 9 10
M  V30 10 1 10 11
M  V30 11 1 9 12
M  V30 12 1 10 4
M  V30 13 1 3 13
M  V30 14 1 3 14
M  V30 15 1 5 15
M  V30 16 1 7 16
M  V30 17 1 7 17
M  V30 18 1 8 18
M  V30 19 1 11 19
M  V30 20 1 11 20
M  V30 END BOND
M  V30 END CTAB
M  END
