
     RDKit          3D

  0  0  0  0  0  0  0  0  0  0999 V3000
M  V30 BEGIN CTAB
M  V30 COUNTS 22 23 0 0 0
M  V30 BEGIN ATOM
M  V30 1 N -1.95476 1.48236 0.284328 0
M  V30 2 C -1.38638 0.192827 0.158581 0
M  V30 3 C -2.18842 -0.912606 0.187041 0
M  V30 4 C -1.66847 -2.20678 0.0663032 0
M  V30 5 C -0.301964 -2.3013 -0.0828083 0
M  V30 6 C 0.554208 -1.22019 -0.11823 0
M  V30 7 C 1.91746 -1.35463 -0.269027 0
M  V30 8 C 2.69848 -0.227434 -0.294154 0
M  V30 9 C 2.17768 1.03752 -0.174807 0
M  V30 10 C 0.792531 1.15942 -0.0223418 0
M  V30 11 N 0.221122 2.4524 0.103665 0
M  V30 12 C -0.0268539 0.0409769 0.00728687 0
M  V30 13 H -2.08886 1.92018 1.21658 0
M  V30 14 H -2.24741 2.00926 -0.550269 0
M  V30 15 H -3.25924 -0.815068 0.305052 0
M  V30 16 H -2.32743 -3.06324 0.0923265 0
M  V30 17 H 0.145759 -3.30158 -0.18097 0
M  V30 18 H 2.34399 -2.35077 -0.364757 0
M  V30 19 H 3.78049 -0.327686 -0.413508 0
M  V30 20 H 2.8089 1.90594 -0.197298 0
M  V30 21 H 0.0678433 2.93171 1.01178 0
M  V30 22 H -0.0586797 2.94868 -0.764783 0
M  V30 END ATOM
M  V30 BEGIN BOND
M  V30 1 1 1 2
M  V30 2 2 2 3
M  V30 3 1 3 4
M  V30 4 2 4 5
M  V30 5 1 5 6
M  V30 6 2 6 7
M  V30 7 1 7 8
M  V30 8 2 8 9
M  V30 9 1 9 10
M  V30 10 1 10 11
M  V30 11 2 10 12
M  V30 12 1 12 2
M  V30 13 1 12 6
M  V30 14 1 1 13
M  V30 15 1 1 14
M  V30 16 1 3 15
M  V30 17 1 4 16
M  V30 18 1 5 17
M  V30 19 1 7 18
M  V30 20 1 8 19
M  V30 21 1 9 20
M  V30 22 1 11 21
M  V30 23 1 11 22
M  V30 END BOND
M  V30 END CTAB
M  END
