
     RDKit          3D

  0  0  0  0  0  0  0  0  0  0999 V3000
M  V30 BEGIN CTAB
M  V30 COUNTS 35 36 0 0 0
M  V30 BEGIN ATOM
M  V30 1 C 4.98006 -0.674039 1.1156 0
M  V30 2 C 4.92819 0.582753 0.249962 0
M  V30 3 C 4.44738 0.168793 -1.10404 0
M  V30 4 C 3.08946 -0.451568 -1.04339 0
M  V30 5 O 2.82811 -1.73512 -0.875887 0
M  V30 6 N 1.56754 -1.94915 -0.868081 0
M  V30 7 C 0.911121 -0.77975 -1.03547 0
M  V30 8 N 1.88579 0.141767 -1.14269 0
M  V30 9 C -0.566147 -0.611847 -1.08264 0
M  V30 10 S -1.19318 -0.3207 0.574184 0
M  V30 11 C -2.959 -0.124171 0.488244 0
M  V30 12 N -3.50043 1.08452 0.299594 0
M  V30 13 C -4.85295 1.24354 0.232308 0
M  V30 14 N -5.35281 2.54794 0.0317158 0
M  V30 15 C -5.67174 0.138936 0.361162 0
M  V30 16 C -5.08842 -1.08823 0.553782 0
M  V30 17 N -3.74536 -1.18919 0.61257 0
M  V30 18 N -5.87853 -2.2589 0.692864 0
M  V30 19 C 4.06923 1.59087 0.932199 0
M  V30 20 H 3.94338 -0.933982 1.38344 0
M  V30 21 H 5.38942 -1.47425 0.454248 0
M  V30 22 H 5.64795 -0.548584 1.9866 0
M  V30 23 H 5.96974 0.967615 0.124745 0
M  V30 24 H 5.1437 -0.597813 -1.49254 0
M  V30 25 H 4.45171 1.00775 -1.82183 0
M  V30 26 H -1.02595 -1.53215 -1.53539 0
M  V30 27 H -0.8657 0.223488 -1.75327 0
M  V30 28 H -6.20848 2.86289 0.524206 0
M  V30 29 H -4.86519 3.19344 -0.608602 0
M  V30 30 H -6.74086 0.27384 0.306607 0
M  V30 31 H -6.8321 -2.17805 1.10001 0
M  V30 32 H -5.54911 -3.20258 0.405459 0
M  V30 33 H 4.72342 2.12632 1.68174 0
M  V30 34 H 3.25941 1.12605 1.56373 0
M  V30 35 H 3.66037 2.36956 0.284363 0
M  V30 END ATOM
M  V30 BEGIN BOND
M  V30 1 1 1 2
M  V30 2 1 2 3
M  V30 3 1 3 4
M  V30 4 1 4 5
M  V30 5 1 5 6
M  V30 6 2 6 7
M  V30 7 1 7 8
M  V30 8 1 7 9
M  V30 9 1 9 10
M  V30 10 1 10 11
M  V30 11 2 11 12
M  V30 12 1 12 13
M  V30 13 1 13 14
M  V30 14 2 13 15
M  V30 15 1 15 16
M  V30 16 2 16 17
M  V30 17 1 16 18
M  V30 18 1 2 19
M  V30 19 2 8 4
M  V30 20 1 17 11
M  V30 21 1 1 20
M  V30 22 1 1 21
M  V30 23 1 1 22
M  V30 24 1 2 23
M  V30 25 1 3 24
M  V30 26 1 3 25
M  V30 27 1 9 26
M  V30 28 1 9 27
M  V30 29 1 14 28
M  V30 30 1 14 29
M  V30 31 1 15 30
M  V30 32 1 18 31
M  V30 33 1 18 32
M  V30 34 1 19 33
M  V30 35 1 19 34
M  V30 36 1 19 35
M  V30 END BOND
M  V30 END CTAB
M  END
