
     RDKit          3D

  0  0  0  0  0  0  0  0  0  0999 V3000
M  V30 BEGIN CTAB
M  V30 COUNTS 26 26 0 0 0
M  V30 BEGIN ATOM
M  V30 1 N 4.48448 0.928748 -0.332759 0
M  V30 2 C 3.20633 0.427822 0.0355705 0
M  V30 3 N 2.35769 0.0781751 -0.859665 0
M  V30 4 C 1.04319 -0.438126 -0.55617 0
M  V30 5 C 0.0669113 0.738354 -0.569125 0
M  V30 6 C -1.32511 0.244618 -0.255871 0
M  V30 7 C -2.07857 0.621885 0.759399 0
M  V30 8 C -3.40042 -0.102619 0.723275 0
M  V30 9 C -2.98796 -1.37656 -0.0359564 0
M  V30 10 C -2.07083 -0.741457 -1.05023 0
M  V30 11 N 2.89013 0.323193 1.41783 0
M  V30 12 H 4.71243 1.95506 -0.183576 0
M  V30 13 H 5.23787 0.323539 -0.756384 0
M  V30 14 H 0.787818 -1.16318 -1.34777 0
M  V30 15 H 1.00096 -0.979454 0.411484 0
M  V30 16 H 0.10876 1.22206 -1.54814 0
M  V30 17 H 0.423644 1.44669 0.189036 0
M  V30 18 H -1.80438 1.34386 1.51632 0
M  V30 19 H -3.74157 -0.318356 1.73343 0
M  V30 20 H -4.0771 0.476973 0.0947387 0
M  V30 21 H -3.86727 -1.86727 -0.481188 0
M  V30 22 H -2.38385 -2.02365 0.615938 0
M  V30 23 H -2.7064 -0.244122 -1.83066 0
M  V30 24 H -1.42336 -1.47743 -1.56136 0
M  V30 25 H 2.84868 1.2002 2.00889 0
M  V30 26 H 2.69793 -0.59895 1.86295 0
M  V30 END ATOM
M  V30 BEGIN BOND
M  V30 1 1 1 2
M  V30 2 2 2 3 CFG=2
M  V30 3 1 3 4
M  V30 4 1 4 5
M  V30 5 1 5 6
M  V30 6 2 6 7
M  V30 7 1 7 8
M  V30 8 1 8 9
M  V30 9 1 9 10
M  V30 10 1 2 11
M  V30 11 1 10 6
M  V30 12 1 1 12
M  V30 13 1 1 13
M  V30 14 1 4 14
M  V30 15 1 4 15
M  V30 16 1 5 16
M  V30 17 1 5 17
M  V30 18 1 7 18
M  V30 19 1 8 19
M  V30 20 1 8 20
M  V30 21 1 9 21
M  V30 22 1 9 22
M  V30 23 1 10 23
M  V30 24 1 10 24
M  V30 25 1 11 25
M  V30 26 1 11 26
M  V30 END BOND
M  V30 END CTAB
M  END
