
     RDKit          3D

  0  0  0  0  0  0  0  0  0  0999 V3000
M  V30 BEGIN CTAB
M  V30 COUNTS 48 49 0 0 0
M  V30 BEGIN ATOM
M  V30 1 C 6.7064 0.930853 -1.27852 0
M  V30 2 C 5.39428 0.302315 -0.972641 0
M  V30 3 C 5.226 -0.0858533 0.461424 0
M  V30 4 C 3.90451 -0.716716 0.758909 0
M  V30 5 O 2.80164 0.0884721 0.487171 0
M  V30 6 C 1.54257 -0.431743 0.738433 0
M  V30 7 C 1.31793 -1.69309 1.2386 0
M  V30 8 C 0.0638516 -2.19487 1.48235 0
M  V30 9 I -0.149937 -4.13453 2.24645 0
M  V30 10 C -1.05347 -1.43036 1.22739 0
M  V30 11 N -2.36643 -1.90427 1.46251 0
M  V30 12 C -0.847323 -0.148341 0.719897 0
M  V30 13 C 0.413707 0.348574 0.477785 0
M  V30 14 C 0.598216 1.62082 -0.0247943 0
M  V30 15 N 1.91873 2.06793 -0.249696 0
M  V30 16 C -0.494712 2.40665 -0.288312 0
M  V30 17 I -0.263716 4.34834 -1.05341 0
M  V30 18 C -1.77727 1.90524 -0.0431826 0
M  V30 19 C -1.99466 0.639621 0.457166 0
M  V30 20 O -3.20026 0.0723036 0.727311 0
M  V30 21 C -4.49313 0.52513 0.57981 0
M  V30 22 C -4.90115 0.775089 -0.844326 0
M  V30 23 C -4.76416 -0.555929 -1.5881 0
M  V30 24 C -5.69022 -1.55756 -0.903868 0
M  V30 25 H 6.56486 1.71388 -2.05085 0
M  V30 26 H 7.38577 0.143803 -1.66787 0
M  V30 27 H 7.13451 1.38465 -0.356157 0
M  V30 28 H 5.2592 -0.64179 -1.57643 0
M  V30 29 H 4.57829 0.987567 -1.27053 0
M  V30 30 H 5.33696 0.79025 1.14592 0
M  V30 31 H 6.04999 -0.777568 0.730942 0
M  V30 32 H 3.828 -1.64915 0.129958 0
M  V30 33 H 3.84225 -1.07143 1.8067 0
M  V30 34 H 2.22163 -2.28829 1.43579 0
M  V30 35 H -2.86242 -2.40675 0.713697 0
M  V30 36 H -2.81165 -1.74124 2.38063 0
M  V30 37 H 2.34212 1.91585 -1.18886 0
M  V30 38 H 2.50973 2.54538 0.463567 0
M  V30 39 H -2.62742 2.53425 -0.233398 0
M  V30 40 H -4.59677 1.52638 1.11492 0
M  V30 41 H -5.24174 -0.110681 1.117 0
M  V30 42 H -4.3231 1.54176 -1.33274 0
M  V30 43 H -5.98843 1.07433 -0.872413 0
M  V30 44 H -5.02051 -0.447877 -2.65096 0
M  V30 45 H -3.71683 -0.863378 -1.46761 0
M  V30 46 H -5.27646 -1.8795 0.0577019 0
M  V30 47 H -6.64275 -1.01847 -0.694591 0
M  V30 48 H -5.83661 -2.44005 -1.55275 0
M  V30 END ATOM
M  V30 BEGIN BOND
M  V30 1 1 1 2
M  V30 2 1 2 3
M  V30 3 1 3 4
M  V30 4 1 4 5
M  V30 5 1 5 6
M  V30 6 2 6 7
M  V30 7 1 7 8
M  V30 8 1 8 9
M  V30 9 2 8 10
M  V30 10 1 10 11
M  V30 11 1 10 12
M  V30 12 2 12 13
M  V30 13 1 13 14
M  V30 14 1 14 15
M  V30 15 2 14 16
M  V30 16 1 16 17
M  V30 17 1 16 18
M  V30 18 2 18 19
M  V30 19 1 19 20
M  V30 20 1 20 21
M  V30 21 1 21 22
M  V30 22 1 22 23
M  V30 23 1 23 24
M  V30 24 1 13 6
M  V30 25 1 19 12
M  V30 26 1 1 25
M  V30 27 1 1 26
M  V30 28 1 1 27
M  V30 29 1 2 28
M  V30 30 1 2 29
M  V30 31 1 3 30
M  V30 32 1 3 31
M  V30 33 1 4 32
M  V30 34 1 4 33
M  V30 35 1 7 34
M  V30 36 1 11 35
M  V30 37 1 11 36
M  V30 38 1 15 37
M  V30 39 1 15 38
M  V30 40 1 18 39
M  V30 41 1 21 40
M  V30 42 1 21 41
M  V30 43 1 22 42
M  V30 44 1 22 43
M  V30 45 1 23 44
M  V30 46 1 23 45
M  V30 47 1 24 46
M  V30 48 1 24 47
M  V30 49 1 24 48
M  V30 END BOND
M  V30 END CTAB
M  END
