
     RDKit          3D

  0  0  0  0  0  0  0  0  0  0999 V3000
M  V30 BEGIN CTAB
M  V30 COUNTS 23 23 0 0 0
M  V30 BEGIN ATOM
M  V30 1 N 3.58189 -0.391974 0.394311 0
M  V30 2 N 2.20123 -0.523153 0.469794 0
M  V30 3 C 1.3993 0.426806 0.067274 0
M  V30 4 N -0.00981181 0.287457 0.146691 0
M  V30 5 C -0.915725 0.95772 -0.770706 0
M  V30 6 C -2.10191 0.127049 -1.11436 0
M  V30 7 N -2.63768 -0.64353 -0.0381756 0
M  V30 8 C -1.65706 -1.44971 0.637608 0
M  V30 9 C -0.541006 -0.556826 1.18611 0
M  V30 10 N 1.93444 1.62781 -0.462328 0
M  V30 11 H 4.03468 0.516984 0.615346 0
M  V30 12 H 4.18028 -1.19509 0.117465 0
M  V30 13 H -1.26558 1.92369 -0.347104 0
M  V30 14 H -0.380521 1.18448 -1.73949 0
M  V30 15 H -2.90424 0.806791 -1.47451 0
M  V30 16 H -1.79176 -0.602599 -1.91721 0
M  V30 17 H -3.35833 -1.29127 -0.440262 0
M  V30 18 H -1.20051 -2.2212 0.021024 0
M  V30 19 H -2.13559 -1.91053 1.51017 0
M  V30 20 H -0.990151 0.0514836 1.98448 0
M  V30 21 H 0.22923 -1.25114 1.5844 0
M  V30 22 H 1.42578 2.51828 -0.50132 0
M  V30 23 H 2.90307 1.60847 -0.835623 0
M  V30 END ATOM
M  V30 BEGIN BOND
M  V30 1 1 1 2
M  V30 2 2 2 3 CFG=2
M  V30 3 1 3 4
M  V30 4 1 4 5
M  V30 5 1 5 6
M  V30 6 1 6 7
M  V30 7 1 7 8
M  V30 8 1 8 9
M  V30 9 1 3 10
M  V30 10 1 9 4
M  V30 11 1 1 11
M  V30 12 1 1 12
M  V30 13 1 5 13
M  V30 14 1 5 14
M  V30 15 1 6 15
M  V30 16 1 6 16
M  V30 17 1 7 17
M  V30 18 1 8 18
M  V30 19 1 8 19
M  V30 20 1 9 20
M  V30 21 1 9 21
M  V30 22 1 10 22
M  V30 23 1 10 23
M  V30 END BOND
M  V30 END CTAB
M  END
