
     RDKit          3D

  0  0  0  0  0  0  0  0  0  0999 V3000
M  V30 BEGIN CTAB
M  V30 COUNTS 38 41 0 0 0
M  V30 BEGIN ATOM
M  V30 1 N 4.80599 2.61157 0.483558 0
M  V30 2 C 3.92493 1.49783 0.481412 0
M  V30 3 C 4.08591 0.503396 -0.46099 0
M  V30 4 C 5.11811 0.622351 -1.39175 0
M  V30 5 C 5.26801 -0.380009 -2.32941 0
M  V30 6 C 4.39731 -1.46433 -2.31871 0
M  V30 7 N 3.40292 -1.57436 -1.41845 0
M  V30 8 C 3.24573 -0.601854 -0.497048 0
M  V30 9 C 2.21545 -0.750395 0.408496 0
M  V30 10 S 1.13493 -2.18165 0.354335 0
M  V30 11 S -0.529048 -1.80961 -0.894176 0
M  V30 12 C -1.8966 -1.10596 0.00441177 0
M  V30 13 C -3.04199 -0.820456 -0.71297 0
M  V30 14 N -3.12615 -1.06437 -2.04713 0
M  V30 15 C -4.23206 -0.793981 -2.76532 0
M  V30 16 C -5.34296 -0.246442 -2.15193 0
M  V30 17 C -5.29571 0.0153378 -0.798978 0
M  V30 18 C -4.14639 -0.27349 -0.0904365 0
M  V30 19 C -4.03925 -0.0332653 1.26794 0
M  V30 20 N -5.18383 0.529917 1.89522 0
M  V30 21 C -2.90348 -0.314126 1.99016 0
M  V30 22 C -1.81053 -0.858588 1.35876 0
M  V30 23 C 2.05258 0.243083 1.35203 0
M  V30 24 C 2.89386 1.34358 1.38325 0
M  V30 25 H 4.91705 3.27735 -0.313058 0
M  V30 26 H 5.39717 2.80743 1.32136 0
M  V30 27 H 5.74505 1.47607 -1.34203 0
M  V30 28 H 6.06254 -0.278216 -3.03782 0
M  V30 29 H 4.55032 -2.23396 -3.0763 0
M  V30 30 H -4.26277 -1.00353 -3.83534 0
M  V30 31 H -6.24773 -0.0253752 -2.74025 0
M  V30 32 H -6.1404 0.443148 -0.276998 0
M  V30 33 H -5.68272 -0.0582347 2.59545 0
M  V30 34 H -5.53553 1.46905 1.69574 0
M  V30 35 H -2.90616 -0.0951333 3.04458 0
M  V30 36 H -0.886004 -1.09506 1.90871 0
M  V30 37 H 1.2388 0.107268 2.05275 0
M  V30 38 H 2.75262 2.11502 2.13055 0
M  V30 END ATOM
M  V30 BEGIN BOND
M  V30 1 1 1 2
M  V30 2 2 2 3
M  V30 3 1 3 4
M  V30 4 2 4 5
M  V30 5 1 5 6
M  V30 6 2 6 7
M  V30 7 1 7 8
M  V30 8 2 8 9
M  V30 9 1 9 10
M  V30 10 1 10 11
M  V30 11 1 11 12
M  V30 12 1 12 13
M  V30 13 2 13 14
M  V30 14 1 14 15
M  V30 15 2 15 16
M  V30 16 1 16 17
M  V30 17 2 17 18
M  V30 18 1 18 19
M  V30 19 1 19 20
M  V30 20 2 19 21
M  V30 21 1 21 22
M  V30 22 1 9 23
M  V30 23 2 23 24
M  V30 24 1 24 2
M  V30 25 1 8 3
M  V30 26 2 22 12
M  V30 27 1 18 13
M  V30 28 1 1 25
M  V30 29 1 1 26
M  V30 30 1 4 27
M  V30 31 1 5 28
M  V30 32 1 6 29
M  V30 33 1 15 30
M  V30 34 1 16 31
M  V30 35 1 17 32
M  V30 36 1 20 33
M  V30 37 1 20 34
M  V30 38 1 21 35
M  V30 39 1 22 36
M  V30 40 1 23 37
M  V30 41 1 24 38
M  V30 END BOND
M  V30 END CTAB
M  END
