
     RDKit          3D

  0  0  0  0  0  0  0  0  0  0999 V3000
M  V30 BEGIN CTAB
M  V30 COUNTS 34 35 0 0 0
M  V30 BEGIN ATOM
M  V30 1 N 6.41581 0.211803 -0.493573 0
M  V30 2 C 5.05398 -0.0641624 -0.257529 0
M  V30 3 C 4.41091 0.300371 0.924313 0
M  V30 4 C 3.07687 0.00829468 1.10854 0
M  V30 5 C 2.32538 -0.645374 0.154312 0
M  V30 6 C 2.95301 -1.01008 -1.01844 0
M  V30 7 C 4.28844 -0.721053 -1.21013 0
M  V30 8 C 0.890319 -0.933912 0.408089 0
M  V30 9 N 0.0697441 0.159639 -0.0554969 0
M  V30 10 C -1.3416 0.107803 0.0819701 0
M  V30 11 C -1.91948 -1.01762 0.672319 0
M  V30 12 C -3.28625 -1.06724 0.805192 0
M  V30 13 C -4.0744 -0.0278466 0.365267 0
M  V30 14 C -3.48018 1.07345 -0.214715 0
M  V30 15 C -2.1131 1.15887 -0.364926 0
M  V30 16 N -4.31623 2.13707 -0.662591 0
M  V30 17 C -5.55756 -0.0586021 0.498285 0
M  V30 18 H 7.10733 -0.000108134 0.257689 0
M  V30 19 H 6.79336 0.618599 -1.37629 0
M  V30 20 H 5.00028 0.820528 1.68892 0
M  V30 21 H 2.5725 0.294866 2.03689 0
M  V30 22 H 2.39163 -1.52564 -1.79023 0
M  V30 23 H 4.77983 -1.01575 -2.14813 0
M  V30 24 H 0.688644 -1.04536 1.50638 0
M  V30 25 H 0.577658 -1.91753 -0.0318247 0
M  V30 26 H 0.502779 0.984917 -0.48914 0
M  V30 27 H -1.32878 -1.85174 1.0287 0
M  V30 28 H -3.77557 -1.91801 1.25565 0
M  V30 29 H -1.70167 2.04266 -0.825153 0
M  V30 30 H -5.14733 1.93563 -1.26206 0
M  V30 31 H -4.14512 3.13317 -0.422185 0
M  V30 32 H -5.83361 0.691071 1.29316 0
M  V30 33 H -6.04082 0.202401 -0.459633 0
M  V30 34 H -5.83676 -1.06112 0.869273 0
M  V30 END ATOM
M  V30 BEGIN BOND
M  V30 1 1 1 2
M  V30 2 2 2 3
M  V30 3 1 3 4
M  V30 4 2 4 5
M  V30 5 1 5 6
M  V30 6 2 6 7
M  V30 7 1 5 8
M  V30 8 1 8 9
M  V30 9 1 9 10
M  V30 10 2 10 11
M  V30 11 1 11 12
M  V30 12 2 12 13
M  V30 13 1 13 14
M  V30 14 2 14 15
M  V30 15 1 14 16
M  V30 16 1 13 17
M  V30 17 1 7 2
M  V30 18 1 15 10
M  V30 19 1 1 18
M  V30 20 1 1 19
M  V30 21 1 3 20
M  V30 22 1 4 21
M  V30 23 1 6 22
M  V30 24 1 7 23
M  V30 25 1 8 24
M  V30 26 1 8 25
M  V30 27 1 9 26
M  V30 28 1 11 27
M  V30 29 1 12 28
M  V30 30 1 15 29
M  V30 31 1 16 30
M  V30 32 1 16 31
M  V30 33 1 17 32
M  V30 34 1 17 33
M  V30 35 1 17 34
M  V30 END BOND
M  V30 END CTAB
M  END
