
     RDKit          3D

  0  0  0  0  0  0  0  0  0  0999 V3000
M  V30 BEGIN CTAB
M  V30 COUNTS 55 58 0 0 0
M  V30 BEGIN ATOM
M  V30 1 N 3.12452 -2.76941 -2.22709 0
M  V30 2 C 1.89337 -2.00508 -2.19319 0
M  V30 3 C 1.48028 -1.79446 -0.74332 0
M  V30 4 C 2.53089 -1.05931 -0.0144716 0
M  V30 5 C 3.41586 -1.73588 0.795675 0
M  V30 6 C 4.42206 -1.0779 1.50064 0
M  V30 7 C 4.56118 0.285176 1.40545 0
M  V30 8 C 3.6782 0.974206 0.59502 0
M  V30 9 C 2.6913 0.315422 -0.0943967 0
M  V30 10 C 3.83247 2.34089 0.511384 0
M  V30 11 C 4.83486 2.98425 1.21549 0
M  V30 12 C 5.69257 2.27628 2.00859 0
M  V30 13 C 5.56889 0.916462 2.11565 0
M  V30 14 N 0.189045 -1.15043 -0.665983 0
M  V30 15 C -0.885568 -1.85137 -0.0816166 0
M  V30 16 O -0.683023 -3.0141 0.352607 0
M  V30 17 C -2.25168 -1.30096 0.0551843 0
M  V30 18 C -2.09972 -0.037565 0.911738 0
M  V30 19 C -3.40124 0.634016 1.18022 0
M  V30 20 C -3.17515 2.13764 0.961388 0
M  V30 21 C -3.57606 2.55845 -0.412849 0
M  V30 22 C -3.31352 1.52769 -1.47317 0
M  V30 23 C -3.88094 0.176902 -1.15783 0
M  V30 24 C -2.83949 -0.896223 -1.27317 0
M  V30 25 C -4.49919 0.241966 0.217244 0
M  V30 26 N -5.20608 -0.937577 0.594653 0
M  V30 27 H 3.05578 -3.50355 -1.48709 0
M  V30 28 H 3.28248 -3.24436 -3.13749 0
M  V30 29 H 1.0635 -2.57405 -2.67415 0
M  V30 30 H 2.08128 -1.03953 -2.68937 0
M  V30 31 H 1.43091 -2.82431 -0.296886 0
M  V30 32 H 3.37085 -2.81127 0.92255 0
M  V30 33 H 5.11585 -1.61773 2.13722 0
M  V30 34 H 2.00197 0.84535 -0.72589 0
M  V30 35 H 3.15405 2.90765 -0.116947 0
M  V30 36 H 4.96326 4.06636 1.15425 0
M  V30 37 H 6.50171 2.7461 2.58444 0
M  V30 38 H 6.23693 0.323491 2.73965 0
M  V30 39 H 0.10962 -0.183442 -1.05111 0
M  V30 40 H -2.86638 -2.05144 0.5818 0
M  V30 41 H -1.35629 0.595381 0.383705 0
M  V30 42 H -1.58306 -0.381355 1.84553 0
M  V30 43 H -3.68373 0.440296 2.24058 0
M  V30 44 H -2.13553 2.42529 1.23846 0
M  V30 45 H -3.89659 2.62928 1.67799 0
M  V30 46 H -2.9406 3.45127 -0.679248 0
M  V30 47 H -4.63147 2.94827 -0.467355 0
M  V30 48 H -2.22221 1.46834 -1.67723 0
M  V30 49 H -3.76512 1.92266 -2.4205 0
M  V30 50 H -4.69677 -0.0660593 -1.88126 0
M  V30 51 H -2.02514 -0.523353 -1.91949 0
M  V30 52 H -3.2594 -1.80091 -1.79565 0
M  V30 53 H -5.23365 1.08509 0.198117 0
M  V30 54 H -5.20282 -1.68619 -0.133688 0
M  V30 55 H -4.97329 -1.28634 1.54826 0
M  V30 END ATOM
M  V30 BEGIN BOND
M  V30 1 1 1 2
M  V30 2 1 2 3
M  V30 3 1 3 4
M  V30 4 2 4 5
M  V30 5 1 5 6
M  V30 6 2 6 7
M  V30 7 1 7 8
M  V30 8 2 8 9
M  V30 9 1 8 10
M  V30 10 2 10 11
M  V30 11 1 11 12
M  V30 12 2 12 13
M  V30 13 1 3 14
M  V30 14 1 14 15
M  V30 15 2 15 16
M  V30 16 1 15 17
M  V30 17 1 17 18
M  V30 18 1 18 19
M  V30 19 1 19 20
M  V30 20 1 20 21
M  V30 21 1 21 22
M  V30 22 1 22 23
M  V30 23 1 23 24
M  V30 24 1 23 25
M  V30 25 1 25 26
M  V30 26 1 9 4
M  V30 27 1 24 17
M  V30 28 1 13 7
M  V30 29 1 25 19
M  V30 30 1 1 27
M  V30 31 1 1 28
M  V30 32 1 2 29
M  V30 33 1 2 30
M  V30 34 1 3 31
M  V30 35 1 5 32
M  V30 36 1 6 33
M  V30 37 1 9 34
M  V30 38 1 10 35
M  V30 39 1 11 36
M  V30 40 1 12 37
M  V30 41 1 13 38
M  V30 42 1 14 39
M  V30 43 1 17 40
M  V30 44 1 18 41
M  V30 45 1 18 42
M  V30 46 1 19 43
M  V30 47 1 20 44
M  V30 48 1 20 45
M  V30 49 1 21 46
M  V30 50 1 21 47
M  V30 51 1 22 48
M  V30 52 1 22 49
M  V30 53 1 23 50
M  V30 54 1 24 51
M  V30 55 1 24 52
M  V30 56 1 25 53
M  V30 57 1 26 54
M  V30 58 1 26 55
M  V30 END BOND
M  V30 END CTAB
M  END
