
     RDKit          3D

  0  0  0  0  0  0  0  0  0  0999 V3000
M  V30 BEGIN CTAB
M  V30 COUNTS 27 27 0 0 0
M  V30 BEGIN ATOM
M  V30 1 C 3.20496 -1.24126 -0.414239 0
M  V30 2 C 2.71412 -0.306819 0.393083 0
M  V30 3 C 1.47049 -0.557309 1.14601 0
M  V30 4 N 0.431335 0.406292 0.80818 0
M  V30 5 C 0.147685 1.6648 1.40873 0
M  V30 6 O 0.827217 2.11492 2.3815 0
M  V30 7 N -0.962339 2.26995 0.752557 0
M  V30 8 C -1.35472 1.47208 -0.183502 0
M  V30 9 C -0.543167 0.25312 -0.244139 0
M  V30 10 C 0.0832048 0.154358 -1.61455 0
M  V30 11 C -1.35582 -1.00707 -0.032515 0
M  V30 12 N -2.07205 -1.00346 1.21819 0
M  V30 13 N -2.46093 1.79544 -1.03212 0
M  V30 14 H 2.70136 -2.19607 -0.530674 0
M  V30 15 H 4.11452 -1.10313 -0.987154 0
M  V30 16 H 3.25985 0.620918 0.466477 0
M  V30 17 H 1.14238 -1.59985 1.00719 0
M  V30 18 H 1.72569 -0.466834 2.2394 0
M  V30 19 H -0.737965 0.351452 -2.35097 0
M  V30 20 H 0.374001 -0.905657 -1.76257 0
M  V30 21 H 0.946317 0.806254 -1.73089 0
M  V30 22 H -1.98189 -1.17397 -0.910411 0
M  V30 23 H -0.624261 -1.84891 0.012171 0
M  V30 24 H -2.43353 -1.9733 1.36454 0
M  V30 25 H -2.86351 -0.321144 1.22641 0
M  V30 26 H -2.35415 2.29681 -1.93079 0
M  V30 27 H -3.39879 1.49838 -0.699902 0
M  V30 END ATOM
M  V30 BEGIN BOND
M  V30 1 2 1 2 CFG=2
M  V30 2 1 2 3
M  V30 3 1 3 4
M  V30 4 1 4 5
M  V30 5 2 5 6
M  V30 6 1 5 7
M  V30 7 2 7 8
M  V30 8 1 8 9
M  V30 9 1 9 10
M  V30 10 1 9 11
M  V30 11 1 11 12
M  V30 12 1 8 13
M  V30 13 1 9 4
M  V30 14 1 1 14
M  V30 15 1 1 15
M  V30 16 1 2 16
M  V30 17 1 3 17
M  V30 18 1 3 18
M  V30 19 1 10 19
M  V30 20 1 10 20
M  V30 21 1 10 21
M  V30 22 1 11 22
M  V30 23 1 11 23
M  V30 24 1 12 24
M  V30 25 1 12 25
M  V30 26 1 13 26
M  V30 27 1 13 27
M  V30 END BOND
M  V30 END CTAB
M  END
