
     RDKit          3D

  0  0  0  0  0  0  0  0  0  0999 V3000
M  V30 BEGIN CTAB
M  V30 COUNTS 58 57 0 0 0
M  V30 BEGIN ATOM
M  V30 1 C 6.95315 -1.27479 -1.66037 0
M  V30 2 C 6.99491 0.0779311 -0.972039 0 CFG=1
M  V30 3 N 7.51201 1.08819 -1.84909 0
M  V30 4 C 5.56751 0.479904 -0.59692 0
M  V30 5 C 4.97632 -0.536611 0.327906 0
M  V30 6 C 3.53704 -0.113448 0.662927 0
M  V30 7 C 3.4967 1.21592 1.33225 0
M  V30 8 C 2.1628 1.63464 1.79009 0
M  V30 9 C 1.02214 1.83564 0.896498 0
M  V30 10 C 0.435448 0.729543 0.145856 0
M  V30 11 C -0.834062 0.344344 0.358583 0
M  V30 12 C -1.7121 0.973389 1.32846 0
M  V30 13 C -2.16605 -0.081715 2.35496 0
M  V30 14 C -2.89297 -1.22469 1.74672 0
M  V30 15 C -4.13192 -0.786807 1.0384 0
M  V30 16 C -4.85357 -1.99038 0.443626 0
M  V30 17 C -6.10426 -1.58753 -0.273322 0
M  V30 18 C -5.82486 -0.645489 -1.40093 0
M  V30 19 C -7.10554 -0.254609 -2.11219 0
M  V30 20 N -6.76824 0.653454 -3.18727 0
M  V30 21 H 7.91378 -1.39605 -2.19659 0
M  V30 22 H 6.12106 -1.32378 -2.37731 0
M  V30 23 H 6.86164 -2.07505 -0.926348 0
M  V30 24 H 7.57514 -0.0103769 -0.0311763 0
M  V30 25 H 7.03777 1.98582 -1.6373 0
M  V30 26 H 7.35381 0.833495 -2.83031 0
M  V30 27 H 4.95687 0.579871 -1.50146 0
M  V30 28 H 5.66108 1.46595 -0.0919436 0
M  V30 29 H 5.54232 -0.667403 1.25465 0
M  V30 30 H 4.96165 -1.50679 -0.20172 0
M  V30 31 H 3.07786 -0.94581 1.19966 0
M  V30 32 H 3.02001 -0.0288523 -0.347087 0
M  V30 33 H 3.91381 2.00162 0.626144 0
M  V30 34 H 4.16152 1.21322 2.25912 0
M  V30 35 H 2.28575 2.62323 2.36988 0
M  V30 36 H 1.89431 0.865373 2.62437 0
M  V30 37 H 0.262878 2.55946 1.29587 0
M  V30 38 H 1.45929 2.51524 0.0347329 0
M  V30 39 H 0.954988 0.161744 -0.649239 0
M  V30 40 H -1.18309 -0.506638 -0.267492 0
M  V30 41 H -1.32188 1.78748 1.93109 0
M  V30 42 H -2.64567 1.38702 0.852516 0
M  V30 43 H -1.28092 -0.433132 2.91031 0
M  V30 44 H -2.80639 0.47963 3.07693 0
M  V30 45 H -2.16627 -1.72401 1.03818 0
M  V30 46 H -3.08955 -2.01373 2.51009 0
M  V30 47 H -3.81836 -0.0875856 0.211083 0
M  V30 48 H -4.83763 -0.309628 1.74362 0
M  V30 49 H -5.07751 -2.65922 1.2997 0
M  V30 50 H -4.18106 -2.54479 -0.223311 0
M  V30 51 H -6.64769 -2.49232 -0.599604 0
M  V30 52 H -6.81368 -1.05675 0.420712 0
M  V30 53 H -5.42345 0.297316 -0.973711 0
M  V30 54 H -5.17002 -1.11096 -2.1481 0
M  V30 55 H -7.60796 -1.13936 -2.55619 0
M  V30 56 H -7.8143 0.239522 -1.41657 0
M  V30 57 H -5.87024 1.14242 -2.95939 0
M  V30 58 H -7.52431 1.35698 -3.36454 0
M  V30 END ATOM
M  V30 BEGIN BOND
M  V30 1 1 1 2
M  V30 2 1 2 3
M  V30 3 1 2 4
M  V30 4 1 4 5
M  V30 5 1 5 6
M  V30 6 1 6 7
M  V30 7 1 7 8
M  V30 8 1 8 9
M  V30 9 1 9 10
M  V30 10 2 10 11
M  V30 11 1 11 12
M  V30 12 1 12 13
M  V30 13 1 13 14
M  V30 14 1 14 15
M  V30 15 1 15 16
M  V30 16 1 16 17
M  V30 17 1 17 18
M  V30 18 1 18 19
M  V30 19 1 19 20
M  V30 20 1 1 21
M  V30 21 1 1 22
M  V30 22 1 1 23
M  V30 23 1 2 24 CFG=1
M  V30 24 1 3 25
M  V30 25 1 3 26
M  V30 26 1 4 27
M  V30 27 1 4 28
M  V30 28 1 5 29
M  V30 29 1 5 30
M  V30 30 1 6 31
M  V30 31 1 6 32
M  V30 32 1 7 33
M  V30 33 1 7 34
M  V30 34 1 8 35
M  V30 35 1 8 36
M  V30 36 1 9 37
M  V30 37 1 9 38
M  V30 38 1 10 39
M  V30 39 1 11 40
M  V30 40 1 12 41
M  V30 41 1 12 42
M  V30 42 1 13 43
M  V30 43 1 13 44
M  V30 44 1 14 45
M  V30 45 1 14 46
M  V30 46 1 15 47
M  V30 47 1 15 48
M  V30 48 1 16 49
M  V30 49 1 16 50
M  V30 50 1 17 51
M  V30 51 1 17 52
M  V30 52 1 18 53
M  V30 53 1 18 54
M  V30 54 1 19 55
M  V30 55 1 19 56
M  V30 56 1 20 57
M  V30 57 1 20 58
M  V30 END BOND
M  V30 END CTAB
M  END
