
     RDKit          3D

  0  0  0  0  0  0  0  0  0  0999 V3000
M  V30 BEGIN CTAB
M  V30 COUNTS 28 28 0 0 0
M  V30 BEGIN ATOM
M  V30 1 N 4.27578 -0.900663 -0.0334635 0
M  V30 2 C 2.91575 -0.590828 0.259039 0
M  V30 3 C 2.15073 -1.38288 1.1041 0
M  V30 4 C 0.833818 -1.10218 1.40095 0
M  V30 5 C 0.230351 0.0078567 0.845854 0
M  V30 6 C 0.994001 0.7937 0.00567704 0
M  V30 7 C 2.30783 0.509225 -0.287355 0
M  V30 8 N 3.0929 1.32924 -1.15968 0
M  V30 9 S -1.41157 0.432782 1.16327 0
M  V30 10 O -1.54305 1.94257 1.09238 0
M  V30 11 O -1.76655 0.0390931 2.56801 0
M  V30 12 C -2.56904 -0.266632 0.0510565 0
M  V30 13 C -2.43951 0.185879 -1.3566 0
M  V30 14 C -3.96582 0.077139 0.528461 0
M  V30 15 H 4.86158 -1.35672 0.700748 0
M  V30 16 H 4.72345 -0.696515 -0.946023 0
M  V30 17 H 2.61859 -2.25968 1.54586 0
M  V30 18 H 0.289984 -1.75806 2.06701 0
M  V30 19 H 0.575553 1.67689 -0.459133 0
M  V30 20 H 4.12481 1.35334 -1.09768 0
M  V30 21 H 2.57724 1.89683 -1.85547 0
M  V30 22 H -2.48726 -1.37781 0.117762 0
M  V30 23 H -1.69084 -0.352653 -1.95772 0
M  V30 24 H -2.26901 1.26476 -1.4382 0
M  V30 25 H -3.42907 -0.0133976 -1.86417 0
M  V30 26 H -4.73386 -0.574584 0.0638376 0
M  V30 27 H -4.04618 0.00769222 1.63121 0
M  V30 28 H -4.2206 1.11561 0.235053 0
M  V30 END ATOM
M  V30 BEGIN BOND
M  V30 1 1 1 2
M  V30 2 2 2 3
M  V30 3 1 3 4
M  V30 4 2 4 5
M  V30 5 1 5 6
M  V30 6 2 6 7
M  V30 7 1 7 8
M  V30 8 1 5 9
M  V30 9 2 9 10
M  V30 10 2 9 11
M  V30 11 1 9 12
M  V30 12 1 12 13
M  V30 13 1 12 14
M  V30 14 1 7 2
M  V30 15 1 1 15
M  V30 16 1 1 16
M  V30 17 1 3 17
M  V30 18 1 4 18
M  V30 19 1 6 19
M  V30 20 1 8 20
M  V30 21 1 8 21
M  V30 22 1 12 22
M  V30 23 1 13 23
M  V30 24 1 13 24
M  V30 25 1 13 25
M  V30 26 1 14 26
M  V30 27 1 14 27
M  V30 28 1 14 28
M  V30 END BOND
M  V30 END CTAB
M  END
