
     RDKit          3D

  0  0  0  0  0  0  0  0  0  0999 V3000
M  V30 BEGIN CTAB
M  V30 COUNTS 35 36 0 0 0
M  V30 BEGIN ATOM
M  V30 1 N 5.61923 1.49228 0.522491 0
M  V30 2 C 4.33097 0.884762 0.348245 0
M  V30 3 C 3.75774 0.852385 -0.909514 0
M  V30 4 C 2.49978 0.261447 -1.09653 0
M  V30 5 C 1.84508 -0.277898 -0.0451 0
M  V30 6 C 2.39729 -0.254071 1.20643 0
M  V30 7 C 3.64816 0.33346 1.39186 0
M  V30 8 N 0.508152 -0.913904 -0.182141 0
M  V30 9 C -0.549351 -0.0414442 -0.250469 0
M  V30 10 O -0.177333 1.25329 -0.184463 0
M  V30 11 C -1.97742 -0.135724 -0.375726 0
M  V30 12 C -2.81282 -1.18579 -0.474479 0
M  V30 13 C -4.12065 -0.680756 -0.573256 0
M  V30 14 C -4.01526 0.665938 -0.529728 0
M  V30 15 O -2.78094 0.951452 -0.416815 0
M  V30 16 S -5.39097 1.77484 -0.619934 0
M  V30 17 O -6.63913 0.99482 -0.78859 0
M  V30 18 O -5.24913 2.67815 -1.82369 0
M  V30 19 N -5.42449 2.72204 0.799745 0
M  V30 20 C 0.611718 -2.2948 -0.213682 0
M  V30 21 O -0.342945 -3.0745 -0.319269 0
M  V30 22 C 1.99302 -2.95829 -0.113608 0
M  V30 23 H 6.49808 0.946795 0.530251 0
M  V30 24 H 5.64756 2.51409 0.643735 0
M  V30 25 H 4.25468 1.27255 -1.76631 0
M  V30 26 H 2.0633 0.241784 -2.07506 0
M  V30 27 H 1.8575 -0.695141 2.05157 0
M  V30 28 H 4.06293 0.343888 2.37252 0
M  V30 29 H -2.67884 -2.23561 -0.490422 0
M  V30 30 H -5.03504 -1.25422 -0.666718 0
M  V30 31 H -4.84202 2.28695 1.54065 0
M  V30 32 H -6.37284 2.97734 1.11015 0
M  V30 33 H 1.93411 -3.78157 -0.888461 0
M  V30 34 H 2.78421 -2.29632 -0.456183 0
M  V30 35 H 2.09566 -3.36823 0.899024 0
M  V30 END ATOM
M  V30 BEGIN BOND
M  V30 1 1 1 2
M  V30 2 2 2 3
M  V30 3 1 3 4
M  V30 4 2 4 5
M  V30 5 1 5 6
M  V30 6 2 6 7
M  V30 7 1 5 8
M  V30 8 1 8 9
M  V30 9 2 9 10
M  V30 10 1 9 11
M  V30 11 2 11 12
M  V30 12 1 12 13
M  V30 13 2 13 14
M  V30 14 1 14 15
M  V30 15 1 14 16
M  V30 16 2 16 17
M  V30 17 2 16 18
M  V30 18 1 16 19
M  V30 19 1 8 20
M  V30 20 2 20 21
M  V30 21 1 20 22
M  V30 22 1 7 2
M  V30 23 1 15 11
M  V30 24 1 1 23
M  V30 25 1 1 24
M  V30 26 1 3 25
M  V30 27 1 4 26
M  V30 28 1 6 27
M  V30 29 1 7 28
M  V30 30 1 12 29
M  V30 31 1 13 30
M  V30 32 1 19 31
M  V30 33 1 19 32
M  V30 34 1 22 33
M  V30 35 1 22 34
M  V30 36 1 22 35
M  V30 END BOND
M  V30 END CTAB
M  END
