
     RDKit          3D

  0  0  0  0  0  0  0  0  0  0999 V3000
M  V30 BEGIN CTAB
M  V30 COUNTS 38 38 0 0 0
M  V30 BEGIN ATOM
M  V30 1 N -2.32183 1.19834 1.6595 0
M  V30 2 C -2.37455 0.659186 0.332336 0 CFG=1
M  V30 3 C -1.38138 -0.432907 0.246071 0
M  V30 4 O -1.24087 -1.03036 -0.843437 0
M  V30 5 N -0.622414 -0.768643 1.39325 0
M  V30 6 C 0.372379 -1.83227 1.37752 0
M  V30 7 C 1.57267 -1.29877 0.677591 0
M  V30 8 C 1.92499 -1.62532 -0.599609 0
M  V30 9 C 3.06576 -1.06321 -1.15575 0
M  V30 10 C 3.82889 -0.185933 -0.41932 0
M  V30 11 C 3.46851 0.140355 0.870395 0
M  V30 12 C 2.34337 -0.408492 1.43078 0
M  V30 13 S 5.27069 0.54372 -1.08011 0
M  V30 14 O 6.29915 0.753809 -0.00295588 0
M  V30 15 O 5.86179 -0.404484 -2.10065 0
M  V30 16 N 4.85544 2.01845 -1.85079 0
M  V30 17 C -3.75698 0.0697711 0.0638687 0
M  V30 18 C -3.78761 -0.484904 -1.33708 0
M  V30 19 C -4.82565 1.13605 0.198786 0
M  V30 20 H -3.0339 0.790847 2.24187 0
M  V30 21 H -2.38401 2.20198 1.64037 0
M  V30 22 H -2.15463 1.46641 -0.385319 0
M  V30 23 H -0.777094 -0.233475 2.29709 0
M  V30 24 H 0.674668 -2.07763 2.40677 0
M  V30 25 H -0.0210841 -2.74355 0.874042 0
M  V30 26 H 1.31645 -2.31866 -1.16413 0
M  V30 27 H 3.34726 -1.32261 -2.17312 0
M  V30 28 H 4.09401 0.842838 1.43702 0
M  V30 29 H 2.0702 -0.14131 2.45189 0
M  V30 30 H 5.30734 2.79846 -1.29475 0
M  V30 31 H 3.83165 2.15891 -1.81919 0
M  V30 32 H -3.98525 -0.74452 0.778677 0
M  V30 33 H -3.09897 0.0845937 -1.99374 0
M  V30 34 H -3.57019 -1.58066 -1.37191 0
M  V30 35 H -4.817 -0.282284 -1.75002 0
M  V30 36 H -4.82032 1.60425 1.19278 0
M  V30 37 H -5.81444 0.65267 0.0647888 0
M  V30 38 H -4.71704 1.85934 -0.636754 0
M  V30 END ATOM
M  V30 BEGIN BOND
M  V30 1 1 1 2
M  V30 2 1 2 3
M  V30 3 2 3 4
M  V30 4 1 3 5
M  V30 5 1 5 6
M  V30 6 1 6 7
M  V30 7 2 7 8
M  V30 8 1 8 9
M  V30 9 2 9 10
M  V30 10 1 10 11
M  V30 11 2 11 12
M  V30 12 1 10 13
M  V30 13 2 13 14
M  V30 14 2 13 15
M  V30 15 1 13 16
M  V30 16 1 2 17
M  V30 17 1 17 18
M  V30 18 1 17 19
M  V30 19 1 12 7
M  V30 20 1 1 20
M  V30 21 1 1 21
M  V30 22 1 2 22 CFG=3
M  V30 23 1 5 23
M  V30 24 1 6 24
M  V30 25 1 6 25
M  V30 26 1 8 26
M  V30 27 1 9 27
M  V30 28 1 11 28
M  V30 29 1 12 29
M  V30 30 1 16 30
M  V30 31 1 16 31
M  V30 32 1 17 32
M  V30 33 1 18 33
M  V30 34 1 18 34
M  V30 35 1 18 35
M  V30 36 1 19 36
M  V30 37 1 19 37
M  V30 38 1 19 38
M  V30 END BOND
M  V30 END CTAB
M  END
