
     RDKit          3D

  0  0  0  0  0  0  0  0  0  0999 V3000
M  V30 BEGIN CTAB
M  V30 COUNTS 20 21 0 0 0
M  V30 BEGIN ATOM
M  V30 1 N 3.38184 -1.34644 -0.665366 0
M  V30 2 C 2.13377 -0.729218 -0.397176 0
M  V30 3 N 0.997716 -1.44898 -0.38531 0
M  V30 4 C -0.218325 -0.972854 -0.146691 0
M  V30 5 C -1.34585 -1.77412 -0.15068 0
M  V30 6 C -2.58183 -1.22434 0.103778 0
M  V30 7 C -2.73953 0.115784 0.366408 0
M  V30 8 C -1.60784 0.941138 0.374243 0
M  V30 9 I -1.84357 3.00448 0.777789 0
M  V30 10 C -0.372245 0.388079 0.119238 0
M  V30 11 C 0.786464 1.12259 0.107207 0
M  V30 12 N 0.708853 2.53372 0.372625 0
M  V30 13 N 2.01419 0.581804 -0.144594 0
M  V30 14 H 3.52817 -1.89641 -1.52334 0
M  V30 15 H 4.15499 -1.24344 0.00843786 0
M  V30 16 H -1.21433 -2.83046 -0.358613 0
M  V30 17 H -3.47333 -1.84282 0.103335 0
M  V30 18 H -3.68834 0.589292 0.571055 0
M  V30 19 H 0.807359 2.88822 1.32731 0
M  V30 20 H 0.571839 3.14396 -0.459658 0
M  V30 END ATOM
M  V30 BEGIN BOND
M  V30 1 1 1 2
M  V30 2 2 2 3
M  V30 3 1 3 4
M  V30 4 2 4 5
M  V30 5 1 5 6
M  V30 6 2 6 7
M  V30 7 1 7 8
M  V30 8 1 8 9
M  V30 9 2 8 10
M  V30 10 1 10 11
M  V30 11 1 11 12
M  V30 12 2 11 13
M  V30 13 1 13 2
M  V30 14 1 10 4
M  V30 15 1 1 14
M  V30 16 1 1 15
M  V30 17 1 5 16
M  V30 18 1 6 17
M  V30 19 1 7 18
M  V30 20 1 12 19
M  V30 21 1 12 20
M  V30 END BOND
M  V30 END CTAB
M  END
