
     RDKit          3D

  0  0  0  0  0  0  0  0  0  0999 V3000
M  V30 BEGIN CTAB
M  V30 COUNTS 198 203 0 0 0
M  V30 BEGIN ATOM
M  V30 1 C -24.9688 1.5928 -1.36691 0
M  V30 2 O -25.172 0.634198 -0.376868 0
M  V30 3 C -24.2534 -0.277967 0.105495 0
M  V30 4 C -24.6565 -1.13979 1.09752 0
M  V30 5 O -25.9391 -1.12015 1.61488 0
M  V30 6 C -26.3293 -2.0088 2.61893 0
M  V30 7 C -23.7365 -2.06435 1.59353 0
M  V30 8 C -22.4503 -2.13972 1.12625 0
M  V30 9 C -21.5066 -3.0392 1.5815 0
M  V30 10 N -21.9645 -3.93174 2.61252 0
M  V30 11 N -20.2778 -3.09731 1.10916 0
M  V30 12 C -19.8658 -2.23887 0.109373 0
M  V30 13 N -20.8008 -1.38187 -0.304948 0
M  V30 14 C -22.0457 -1.2767 0.130402 0
M  V30 15 C -22.9561 -0.350312 -0.371788 0
M  V30 16 N -18.552 -2.37037 -0.385486 0
M  V30 17 C -17.6217 -3.1957 0.411351 0
M  V30 18 C -18.0823 -1.92155 -1.64382 0
M  V30 19 C -18.7419 -0.82655 -2.35709 0
M  V30 20 C -18.5638 0.527281 -1.80169 0
M  V30 21 C -17.0434 0.859269 -1.96085 0
M  V30 22 C -16.8858 2.28275 -1.5434 0
M  V30 23 C -15.5351 2.83167 -1.70838 0
M  V30 24 N -14.4314 2.30204 -0.952873 0
M  V30 25 C -14.2297 2.88958 0.35686 0
M  V30 26 C -13.6582 1.26212 -1.43089 0
M  V30 27 O -14.0353 0.702791 -2.55947 0
M  V30 28 C -12.4672 0.703648 -0.832605 0
M  V30 29 C -11.6311 1.30913 0.0488065 0
M  V30 30 C -10.5147 0.704429 0.642482 0
M  V30 31 C -9.57565 1.43759 1.53753 0
M  V30 32 N -9.28422 2.7325 1.04051 0
M  V30 33 C -8.25459 3.482 1.67146 0
M  V30 34 C -6.88813 2.80795 1.38572 0
M  V30 35 C -6.78424 2.70899 -0.0997423 0
M  V30 36 C -5.57203 2.07105 -0.645989 0
M  V30 37 C -5.30464 0.66823 -0.152526 0
M  V30 38 C -4.12604 0.0715675 -0.876588 0
M  V30 39 N -3.74877 -1.2413 -0.40943 0
M  V30 40 C -3.10631 -1.16201 0.910899 0
M  V30 41 C -1.77255 -0.514421 0.791413 0
M  V30 42 C -1.03896 -0.35141 2.10624 0
M  V30 43 C 0.274605 0.359005 1.77762 0
M  V30 44 C 1.197 -0.407354 0.913273 0
M  V30 45 C 1.81256 -1.63035 1.57611 0
M  V30 46 N 2.62925 -2.33436 0.590376 0
M  V30 47 C 3.68371 -1.55201 0.0858409 0
M  V30 48 C 4.80807 -1.13238 0.971952 0
M  V30 49 C 5.69244 -0.147506 0.155602 0
M  V30 50 C 6.27009 -0.810893 -1.01689 0
M  V30 51 C 7.35532 -1.8532 -0.706128 0
M  V30 52 C 8.53562 -1.13131 -0.129744 0
M  V30 53 N 9.67432 -1.92751 0.124784 0
M  V30 54 C 10.2272 -2.41699 -1.12059 0
M  V30 55 C 10.9883 -1.30959 -1.74986 0
M  V30 56 C 10.603 -0.980223 -3.05721 0
M  V30 57 C 11.1866 0.107523 -3.6504 0
M  V30 58 C 12.1152 0.837177 -2.96979 0
M  V30 59 C 12.5027 0.502485 -1.65463 0
M  V30 60 C 11.9206 -0.591984 -1.05214 0
M  V30 61 C 13.3659 1.43485 -1.00023 0
M  V30 62 O 13.2886 2.65011 -1.46346 0
M  V30 63 N 14.2812 1.24817 0.0570226 0
M  V30 64 C 14.5237 -0.0520816 0.667137 0
M  V30 65 C 15.0027 2.37212 0.576877 0
M  V30 66 C 16.3758 2.68049 0.0599448 0
M  V30 67 C 16.4194 2.89512 -1.38812 0
M  V30 68 C 17.6136 3.38548 -2.0718 0
M  V30 69 C 18.956 2.83142 -1.99362 0
M  V30 70 C 19.6763 2.96633 -0.680799 0
M  V30 71 N 21.0264 2.50952 -0.676235 0
M  V30 72 C 22.0058 3.24041 -1.49908 0
M  V30 73 C 21.5284 1.43485 0.0888369 0
M  V30 74 N 21.953 0.269015 -0.391544 0
M  V30 75 C 22.4848 -0.722889 0.382298 0
M  V30 76 C 22.9507 -1.89981 -0.151083 0
M  V30 77 C 23.5164 -2.84948 0.694068 0
M  V30 78 O 23.9983 -4.04633 0.17353 0
M  V30 79 C 24.0113 -4.41953 -1.1597 0
M  V30 80 C 23.6296 -2.65035 2.07413 0
M  V30 81 O 24.2187 -3.67377 2.81454 0
M  V30 82 C 24.4152 -3.60468 4.19566 0
M  V30 83 C 23.1606 -1.4786 2.58666 0
M  V30 84 C 22.5855 -0.506232 1.7403 0
M  V30 85 C 22.1514 0.680143 2.25123 0
M  V30 86 N 22.2549 0.896345 3.65916 0
M  V30 87 N 21.6313 1.6414 1.44354 0
M  V30 88 C -10.256 -0.600349 0.304539 0
M  V30 89 C -11.0708 -1.26678 -0.585757 0
M  V30 90 C -12.15 -0.645018 -1.14773 0
M  V30 91 H -24.0945 1.41409 -2.0255 0
M  V30 92 H -25.8666 1.62135 -2.02652 0
M  V30 93 H -24.8731 2.60945 -0.917379 0
M  V30 94 H -27.4453 -2.00527 2.65752 0
M  V30 95 H -25.832 -1.7707 3.55947 0
M  V30 96 H -26.0392 -3.06254 2.3455 0
M  V30 97 H -24.0322 -2.76422 2.38409 0
M  V30 98 H -21.7972 -4.96955 2.48633 0
M  V30 99 H -22.4434 -3.522 3.42931 0
M  V30 100 H -22.628 0.307832 -1.13258 0
M  V30 101 H -17.5078 -4.12488 -0.208272 0
M  V30 102 H -16.654 -2.68628 0.499506 0
M  V30 103 H -18.0602 -3.49299 1.36116 0
M  V30 104 H -18.1329 -2.84275 -2.34246 0
M  V30 105 H -16.9652 -1.69936 -1.60334 0
M  V30 106 H -19.8215 -1.02113 -2.60415 0
M  V30 107 H -18.2857 -0.779918 -3.40971 0
M  V30 108 H -19.0941 1.33186 -2.34789 0
M  V30 109 H -18.8007 0.602756 -0.754899 0
M  V30 110 H -16.8188 0.697018 -3.01219 0
M  V30 111 H -16.511 0.165194 -1.31072 0
M  V30 112 H -17.182 2.42383 -0.46076 0
M  V30 113 H -17.5917 2.94362 -2.11306 0
M  V30 114 H -15.2312 2.78402 -2.81916 0
M  V30 115 H -15.601 3.9377 -1.44705 0
M  V30 116 H -15.2553 3.24124 0.723357 0
M  V30 117 H -13.9214 2.18008 1.1385 0
M  V30 118 H -13.589 3.76751 0.374357 0
M  V30 119 H -11.7717 2.33745 0.314158 0
M  V30 120 H -10.0364 1.48483 2.564 0
M  V30 121 H -8.64624 0.850889 1.63555 0
M  V30 122 H -9.51695 2.95074 0.0731504 0
M  V30 123 H -8.39619 3.55182 2.74767 0
M  V30 124 H -8.19138 4.48788 1.24143 0
M  V30 125 H -6.76815 1.88842 1.94956 0
M  V30 126 H -6.1479 3.54637 1.74621 0
M  V30 127 H -7.70651 2.29413 -0.569712 0
M  V30 128 H -6.77316 3.77888 -0.477243 0
M  V30 129 H -4.70497 2.73588 -0.491067 0
M  V30 130 H -5.707 1.99671 -1.76242 0
M  V30 131 H -6.2037 0.0320055 -0.263237 0
M  V30 132 H -5.04412 0.67122 0.925195 0
M  V30 133 H -3.32502 0.802518 -0.926309 0
M  V30 134 H -4.45869 -0.0844254 -1.94812 0
M  V30 135 H -4.55323 -1.90398 -0.402028 0
M  V30 136 H -2.95759 -2.22833 1.2164 0
M  V30 137 H -3.7274 -0.684878 1.66791 0
M  V30 138 H -1.92026 0.535122 0.416812 0
M  V30 139 H -1.09861 -1.08206 0.113836 0
M  V30 140 H -0.809073 -1.32207 2.57848 0
M  V30 141 H -1.59959 0.320581 2.78415 0
M  V30 142 H 0.771247 0.582783 2.7385 0
M  V30 143 H 0.0298234 1.32353 1.28244 0
M  V30 144 H 0.838821 -0.727732 -0.0590203 0
M  V30 145 H 2.0657 0.290998 0.684042 0
M  V30 146 H 2.35416 -1.31474 2.4637 0
M  V30 147 H 1.00861 -2.3325 1.87494 0
M  V30 148 H 2.02008 -2.63866 -0.175127 0
M  V30 149 H 3.32351 -0.699736 -0.566007 0
M  V30 150 H 4.18307 -2.22769 -0.70724 0
M  V30 151 H 5.46755 -1.98391 1.20634 0
M  V30 152 H 4.42278 -0.597337 1.86165 0
M  V30 153 H 5.00561 0.694135 -0.134997 0
M  V30 154 H 6.43715 0.20399 0.865914 0
M  V30 155 H 5.54052 -1.31028 -1.67539 0
M  V30 156 H 6.8263 -0.0654404 -1.68877 0
M  V30 157 H 7.53666 -2.36722 -1.64999 0
M  V30 158 H 7.00777 -2.60216 0.0320446 0
M  V30 159 H 8.21294 -0.58781 0.812227 0
M  V30 160 H 8.7478 -0.288097 -0.855468 0
M  V30 161 H 10.3723 -1.52832 0.768887 0
M  V30 162 H 9.42015 -2.76922 -1.75606 0
M  V30 163 H 10.919 -3.27152 -0.932863 0
M  V30 164 H 9.87139 -1.6017 -3.5255 0
M  V30 165 H 10.8864 0.353955 -4.66209 0
M  V30 166 H 12.5845 1.7038 -3.43996 0
M  V30 167 H 12.2024 -0.845595 -0.0437028 0
M  V30 168 H 14.5176 -0.801447 -0.14964 0
M  V30 169 H 15.5473 -0.0167116 1.13297 0
M  V30 170 H 13.8501 -0.270092 1.50499 0
M  V30 171 H 14.3541 3.3038 0.462448 0
M  V30 172 H 15.0185 2.23457 1.70122 0
M  V30 173 H 17.0322 1.77916 0.308514 0
M  V30 174 H 16.7346 3.56168 0.649473 0
M  V30 175 H 15.9801 1.98734 -1.89321 0
M  V30 176 H 15.6334 3.73612 -1.58341 0
M  V30 177 H 17.3375 3.37806 -3.20176 0
M  V30 178 H 17.6842 4.53406 -1.92914 0
M  V30 179 H 19.6309 3.35332 -2.7481 0
M  V30 180 H 18.9965 1.76006 -2.36148 0
M  V30 181 H 19.6605 4.09206 -0.466901 0
M  V30 182 H 19.0785 2.55075 0.138583 0
M  V30 183 H 22.9267 3.32964 -0.858708 0
M  V30 184 H 21.6822 4.2776 -1.70921 0
M  V30 185 H 22.3147 2.68379 -2.38584 0
M  V30 186 H 22.8746 -2.08768 -1.21933 0
M  V30 187 H 23.0545 -4.48374 -1.65735 0
M  V30 188 H 24.6098 -3.6496 -1.71519 0
M  V30 189 H 24.5481 -5.40694 -1.2975 0
M  V30 190 H 23.9187 -4.4462 4.76669 0
M  V30 191 H 24.2014 -2.63198 4.6561 0
M  V30 192 H 25.5166 -3.77921 4.45259 0
M  V30 193 H 23.2239 -1.28486 3.64519 0
M  V30 194 H 22.0703 0.187798 4.38879 0
M  V30 195 H 22.5414 1.84488 3.95386 0
M  V30 196 H -9.42101 -1.14292 0.711083 0
M  V30 197 H -10.8814 -2.30466 -0.869107 0
M  V30 198 H -12.806 -1.15971 -1.85553 0
M  V30 END ATOM
M  V30 BEGIN BOND
M  V30 1 1 1 2
M  V30 2 1 2 3
M  V30 3 2 3 4
M  V30 4 1 4 5
M  V30 5 1 5 6
M  V30 6 1 4 7
M  V30 7 2 7 8
M  V30 8 1 8 9
M  V30 9 1 9 10
M  V30 10 2 9 11
M  V30 11 1 11 12
M  V30 12 2 12 13
M  V30 13 1 13 14
M  V30 14 2 14 15
M  V30 15 1 12 16
M  V30 16 1 16 17
M  V30 17 1 16 18
M  V30 18 1 18 19
M  V30 19 1 19 20
M  V30 20 1 20 21
M  V30 21 1 21 22
M  V30 22 1 22 23
M  V30 23 1 23 24
M  V30 24 1 24 25
M  V30 25 1 24 26
M  V30 26 2 26 27
M  V30 27 1 26 28
M  V30 28 2 28 29
M  V30 29 1 29 30
M  V30 30 1 30 31
M  V30 31 1 31 32
M  V30 32 1 32 33
M  V30 33 1 33 34
M  V30 34 1 34 35
M  V30 35 1 35 36
M  V30 36 1 36 37
M  V30 37 1 37 38
M  V30 38 1 38 39
M  V30 39 1 39 40
M  V30 40 1 40 41
M  V30 41 1 41 42
M  V30 42 1 42 43
M  V30 43 1 43 44
M  V30 44 1 44 45
M  V30 45 1 45 46
M  V30 46 1 46 47
M  V30 47 1 47 48
M  V30 48 1 48 49
M  V30 49 1 49 50
M  V30 50 1 50 51
M  V30 51 1 51 52
M  V30 52 1 52 53
M  V30 53 1 53 54
M  V30 54 1 54 55
M  V30 55 2 55 56
M  V30 56 1 56 57
M  V30 57 2 57 58
M  V30 58 1 58 59
M  V30 59 2 59 60
M  V30 60 1 59 61
M  V30 61 2 61 62
M  V30 62 1 61 63
M  V30 63 1 63 64
M  V30 64 1 63 65
M  V30 65 1 65 66
M  V30 66 1 66 67
M  V30 67 1 67 68
M  V30 68 1 68 69
M  V30 69 1 69 70
M  V30 70 1 70 71
M  V30 71 1 71 72
M  V30 72 1 71 73
M  V30 73 2 73 74
M  V30 74 1 74 75
M  V30 75 2 75 76
M  V30 76 1 76 77
M  V30 77 1 77 78
M  V30 78 1 78 79
M  V30 79 2 77 80
M  V30 80 1 80 81
M  V30 81 1 81 82
M  V30 82 1 80 83
M  V30 83 2 83 84
M  V30 84 1 84 85
M  V30 85 1 85 86
M  V30 86 2 85 87
M  V30 87 2 30 88
M  V30 88 1 88 89
M  V30 89 2 89 90
M  V30 90 1 15 3
M  V30 91 1 90 28
M  V30 92 1 14 8
M  V30 93 1 60 55
M  V30 94 1 87 73
M  V30 95 1 84 75
M  V30 96 1 1 91
M  V30 97 1 1 92
M  V30 98 1 1 93
M  V30 99 1 6 94
M  V30 100 1 6 95
M  V30 101 1 6 96
M  V30 102 1 7 97
M  V30 103 1 10 98
M  V30 104 1 10 99
M  V30 105 1 15 100
M  V30 106 1 17 101
M  V30 107 1 17 102
M  V30 108 1 17 103
M  V30 109 1 18 104
M  V30 110 1 18 105
M  V30 111 1 19 106
M  V30 112 1 19 107
M  V30 113 1 20 108
M  V30 114 1 20 109
M  V30 115 1 21 110
M  V30 116 1 21 111
M  V30 117 1 22 112
M  V30 118 1 22 113
M  V30 119 1 23 114
M  V30 120 1 23 115
M  V30 121 1 25 116
M  V30 122 1 25 117
M  V30 123 1 25 118
M  V30 124 1 29 119
M  V30 125 1 31 120
M  V30 126 1 31 121
M  V30 127 1 32 122
M  V30 128 1 33 123
M  V30 129 1 33 124
M  V30 130 1 34 125
M  V30 131 1 34 126
M  V30 132 1 35 127
M  V30 133 1 35 128
M  V30 134 1 36 129
M  V30 135 1 36 130
M  V30 136 1 37 131
M  V30 137 1 37 132
M  V30 138 1 38 133
M  V30 139 1 38 134
M  V30 140 1 39 135
M  V30 141 1 40 136
M  V30 142 1 40 137
M  V30 143 1 41 138
M  V30 144 1 41 139
M  V30 145 1 42 140
M  V30 146 1 42 141
M  V30 147 1 43 142
M  V30 148 1 43 143
M  V30 149 1 44 144
M  V30 150 1 44 145
M  V30 151 1 45 146
M  V30 152 1 45 147
M  V30 153 1 46 148
M  V30 154 1 47 149
M  V30 155 1 47 150
M  V30 156 1 48 151
M  V30 157 1 48 152
M  V30 158 1 49 153
M  V30 159 1 49 154
M  V30 160 1 50 155
M  V30 161 1 50 156
M  V30 162 1 51 157
M  V30 163 1 51 158
M  V30 164 1 52 159
M  V30 165 1 52 160
M  V30 166 1 53 161
M  V30 167 1 54 162
M  V30 168 1 54 163
M  V30 169 1 56 164
M  V30 170 1 57 165
M  V30 171 1 58 166
M  V30 172 1 60 167
M  V30 173 1 64 168
M  V30 174 1 64 169
M  V30 175 1 64 170
M  V30 176 1 65 171
M  V30 177 1 65 172
M  V30 178 1 66 173
M  V30 179 1 66 174
M  V30 180 1 67 175
M  V30 181 1 67 176
M  V30 182 1 68 177
M  V30 183 1 68 178
M  V30 184 1 69 179
M  V30 185 1 69 180
M  V30 186 1 70 181
M  V30 187 1 70 182
M  V30 188 1 72 183
M  V30 189 1 72 184
M  V30 190 1 72 185
M  V30 191 1 76 186
M  V30 192 1 79 187
M  V30 193 1 79 188
M  V30 194 1 79 189
M  V30 195 1 82 190
M  V30 196 1 82 191
M  V30 197 1 82 192
M  V30 198 1 83 193
M  V30 199 1 86 194
M  V30 200 1 86 195
M  V30 201 1 88 196
M  V30 202 1 89 197
M  V30 203 1 90 198
M  V30 END BOND
M  V30 END CTAB
M  END
