
     RDKit          3D

  0  0  0  0  0  0  0  0  0  0999 V3000
M  V30 BEGIN CTAB
M  V30 COUNTS 21 22 0 0 0
M  V30 BEGIN ATOM
M  V30 1 N -2.58582 -1.41399 -0.364885 0
M  V30 2 C -1.56028 -0.474281 -0.118668 0
M  V30 3 N -0.265311 -0.805734 0.00529598 0
M  V30 4 C 0.726751 0.0611432 0.23828 0
M  V30 5 C 0.391699 1.39349 0.359711 0
M  V30 6 C -0.906345 1.79007 0.243374 0
M  V30 7 C -1.88611 0.85824 0.00395768 0
M  V30 8 N -3.25631 1.23317 -0.124228 0
M  V30 9 N 2.06541 -0.408279 0.350815 0
M  V30 10 C 2.53815 -1.57238 -0.120854 0
M  V30 11 N 3.84739 -1.69641 0.160857 0
M  V30 12 C 4.19841 -0.591735 0.819311 0
M  V30 13 N 3.09249 0.190342 0.928311 0
M  V30 14 H -3.09363 -1.4546 -1.26244 0
M  V30 15 H -2.83333 -2.08237 0.382177 0
M  V30 16 H 1.16946 2.10307 0.546062 0
M  V30 17 H -1.23456 2.82753 0.329362 0
M  V30 18 H -3.90615 0.673163 -0.713577 0
M  V30 19 H -3.64212 2.06943 0.363132 0
M  V30 20 H 1.93902 -2.29481 -0.648919 0
M  V30 21 H 5.20118 -0.405058 1.17937 0
M  V30 END ATOM
M  V30 BEGIN BOND
M  V30 1 1 1 2
M  V30 2 2 2 3
M  V30 3 1 3 4
M  V30 4 2 4 5
M  V30 5 1 5 6
M  V30 6 2 6 7
M  V30 7 1 7 8
M  V30 8 1 4 9
M  V30 9 1 9 10
M  V30 10 2 10 11
M  V30 11 1 11 12
M  V30 12 2 12 13
M  V30 13 1 7 2
M  V30 14 1 13 9
M  V30 15 1 1 14
M  V30 16 1 1 15
M  V30 17 1 5 16
M  V30 18 1 6 17
M  V30 19 1 8 18
M  V30 20 1 8 19
M  V30 21 1 10 20
M  V30 22 1 12 21
M  V30 END BOND
M  V30 END CTAB
M  END
