
     RDKit          3D

  0  0  0  0  0  0  0  0  0  0999 V3000
M  V30 BEGIN CTAB
M  V30 COUNTS 44 46 0 0 0
M  V30 BEGIN ATOM
M  V30 1 N -6.82272 1.68529 -0.174322 0
M  V30 2 C -5.54538 1.07892 -0.530158 0 CFG=1
M  V30 3 C -4.74799 1.07734 0.722583 0
M  V30 4 C -3.40608 0.522881 0.665384 0
M  V30 5 C -2.36165 1.38678 0.331635 0
M  V30 6 C -1.04689 0.973039 0.254748 0
M  V30 7 C -0.720127 -0.317165 0.507121 0
M  V30 8 C -1.72592 -1.20145 0.840486 0
M  V30 9 C -3.02886 -0.7741 0.91272 0
M  V30 10 C 0.632652 -0.864105 0.455778 0
M  V30 11 N 0.882659 -2.15236 0.717757 0
M  V30 12 C 2.11452 -2.68886 0.679833 0
M  V30 13 N 2.31327 -4.06007 0.967472 0
M  V30 14 N 3.1538 -1.90965 0.366169 0
M  V30 15 C 3.01614 -0.578875 0.0798198 0
M  V30 16 C 1.74118 -0.0790833 0.131754 0
M  V30 17 C 4.19211 0.205501 -0.252835 0
M  V30 18 C 5.44618 -0.401985 -0.277312 0
M  V30 19 C 6.57132 0.307023 -0.586119 0
M  V30 20 O 7.82588 -0.274138 -0.616678 0
M  V30 21 C 6.44616 1.64368 -0.875555 0
M  V30 22 C 5.23521 2.26206 -0.859187 0
M  V30 23 C 4.10277 1.53585 -0.545494 0
M  V30 24 C -5.86129 -0.25355 -1.08222 0
M  V30 25 O -4.80228 -1.04014 -1.57968 0
M  V30 26 O -7.0382 -0.687399 -1.11498 0
M  V30 27 H -6.63119 2.46423 0.453186 0
M  V30 28 H -7.42539 1.89221 -0.947285 0
M  V30 29 H -5.12338 1.73937 -1.32307 0
M  V30 30 H -5.37037 0.591858 1.5139 0
M  V30 31 H -4.68038 2.15565 1.05234 0
M  V30 32 H -2.57683 2.4399 0.118917 0
M  V30 33 H -0.265076 1.68503 -0.0100168 0
M  V30 34 H -1.49796 -2.2546 1.05154 0
M  V30 35 H -3.83528 -1.45569 1.17374 0
M  V30 36 H 2.52855 -4.34355 1.93979 0
M  V30 37 H 2.24627 -4.77475 0.223353 0
M  V30 38 H 1.59194 0.947663 -0.0835637 0
M  V30 39 H 5.55723 -1.45182 -0.0516404 0
M  V30 40 H 8.22108 -0.690639 -1.43621 0
M  V30 41 H 7.33456 2.23199 -1.1259 0
M  V30 42 H 5.13996 3.32062 -1.08891 0
M  V30 43 H 3.16142 2.07963 -0.547203 0
M  V30 44 H -4.9416 -1.97258 -1.92796 0
M  V30 END ATOM
M  V30 BEGIN BOND
M  V30 1 1 1 2
M  V30 2 1 2 3
M  V30 3 1 3 4
M  V30 4 2 4 5
M  V30 5 1 5 6
M  V30 6 2 6 7
M  V30 7 1 7 8
M  V30 8 2 8 9
M  V30 9 1 7 10
M  V30 10 2 10 11
M  V30 11 1 11 12
M  V30 12 1 12 13
M  V30 13 2 12 14
M  V30 14 1 14 15
M  V30 15 2 15 16
M  V30 16 1 15 17
M  V30 17 2 17 18
M  V30 18 1 18 19
M  V30 19 1 19 20
M  V30 20 2 19 21
M  V30 21 1 21 22
M  V30 22 2 22 23
M  V30 23 1 2 24
M  V30 24 1 24 25
M  V30 25 2 24 26
M  V30 26 1 9 4
M  V30 27 1 16 10
M  V30 28 1 23 17
M  V30 29 1 1 27
M  V30 30 1 1 28
M  V30 31 1 2 29 CFG=3
M  V30 32 1 3 30
M  V30 33 1 3 31
M  V30 34 1 5 32
M  V30 35 1 6 33
M  V30 36 1 8 34
M  V30 37 1 9 35
M  V30 38 1 13 36
M  V30 39 1 13 37
M  V30 40 1 16 38
M  V30 41 1 18 39
M  V30 42 1 20 40
M  V30 43 1 21 41
M  V30 44 1 22 42
M  V30 45 1 23 43
M  V30 46 1 25 44
M  V30 END BOND
M  V30 END CTAB
M  END
