
     RDKit          3D

  0  0  0  0  0  0  0  0  0  0999 V3000
M  V30 BEGIN CTAB
M  V30 COUNTS 87 90 0 0 0
M  V30 BEGIN ATOM
M  V30 1 N -2.57483 2.42448 0.506763 0
M  V30 2 C -1.3924 1.74476 0.186287 0
M  V30 3 C -0.305319 2.37439 -0.37653 0
M  V30 4 N -0.358697 3.75546 -0.65504 0
M  V30 5 N 0.482401 4.61315 -0.253065 0
M  V30 6 C 0.213552 5.96846 -0.66937 0
M  V30 7 C 0.698649 7.03265 0.0642361 0
M  V30 8 C 0.4288 8.33989 -0.354065 0
M  V30 9 C -0.311887 8.60915 -1.48495 0
M  V30 10 C -0.786786 7.53051 -2.20348 0
M  V30 11 C -0.522183 6.24128 -1.79326 0
M  V30 12 S 1.63823 6.7204 1.50378 0
M  V30 13 O 3.00147 5.84415 1.14255 0
M  V30 14 O 1.95706 8.04067 2.14412 0
M  V30 15 O 0.782774 5.89489 2.44212 0
M  V30 16 C 0.84152 1.67306 -0.67678 0
M  V30 17 C 2.00781 2.30446 -1.27943 0
M  V30 18 O 2.98564 2.84842 -0.479609 0
M  V30 19 O 2.14856 2.36899 -2.5387 0
M  V30 20 C 0.876352 0.321125 -0.399276 0
M  V30 21 N 2.03384 -0.4347 -0.696918 0
M  V30 22 N 3.21205 -0.135396 -0.348518 0
M  V30 23 C 4.25539 -1.01707 -0.739082 0
M  V30 24 C 4.65821 -1.21564 -2.04505 0
M  V30 25 C 5.68479 -2.09503 -2.36207 0
M  V30 26 C 6.34413 -2.80582 -1.3892 0
M  V30 27 C 5.95346 -2.61871 -0.0791764 0
M  V30 28 C 4.93138 -1.74207 0.228376 0
M  V30 29 S 7.62181 -3.90256 -1.80177 0
M  V30 30 O 7.40927 -4.50493 -3.15979 0
M  V30 31 O 7.67303 -5.01087 -0.782495 0
M  V30 32 C 9.18549 -3.04947 -1.81689 0
M  V30 33 C 9.48341 -2.45082 -0.453246 0
M  V30 34 O 9.54751 -3.39819 0.535988 0
M  V30 35 S 9.87998 -2.63857 1.99366 0
M  V30 36 O 11.2827 -1.71758 1.87677 0
M  V30 37 O 10.0771 -3.70358 3.02993 0
M  V30 38 O 8.77191 -1.68624 2.39201 0
M  V30 39 C -0.216442 -0.336505 0.171983 0
M  V30 40 N -0.132668 -1.74097 0.440672 0
M  V30 41 C -1.35521 0.374052 0.46637 0
M  V30 42 N -2.46842 -0.309084 1.04449 0
M  V30 43 N -3.40915 -0.591995 0.248433 0
M  V30 44 C -4.55737 -1.26987 0.728018 0
M  V30 45 C -4.46941 -2.45971 1.42539 0
M  V30 46 C -5.58818 -3.12988 1.89463 0
M  V30 47 C -6.85151 -2.62435 1.67855 0
M  V30 48 C -6.95735 -1.44045 0.985529 0
M  V30 49 C -5.83659 -0.775568 0.519435 0
M  V30 50 S -8.30498 -3.41702 2.24068 0
M  V30 51 O -7.96739 -4.21648 3.46684 0
M  V30 52 O -9.34445 -2.42737 2.61323 0
M  V30 53 C -8.90499 -4.55659 1.01995 0
M  V30 54 C -9.23495 -3.8545 -0.290809 0
M  V30 55 O -10.2064 -2.91208 -0.0467817 0
M  V30 56 S -10.5794 -2.13309 -1.48443 0
M  V30 57 O -11.5175 -3.18918 -2.4251 0
M  V30 58 O -11.3658 -0.899782 -1.14434 0
M  V30 59 O -9.37462 -1.78088 -2.28692 0
M  V30 60 H -3.1354 2.86355 -0.251697 0
M  V30 61 H -2.91493 2.50567 1.48724 0
M  V30 62 H 0.815147 9.16453 0.228809 0
M  V30 63 H -0.513253 9.6314 -1.79901 0
M  V30 64 H -1.37235 7.72182 -3.09537 0
M  V30 65 H -0.889637 5.37563 -2.35019 0
M  V30 66 H 3.4306 6.25749 0.344722 0
M  V30 67 H 2.95266 2.78103 0.525796 0
M  V30 68 H 4.14653 -0.662816 -2.81261 0
M  V30 69 H 5.98468 -2.23495 -3.38781 0
M  V30 70 H 6.46398 -3.17321 0.703784 0
M  V30 71 H 4.63424 -1.60047 1.2443 0
M  V30 72 H 10.0103 -3.71969 -2.07468 0
M  V30 73 H 9.11773 -2.26828 -2.59563 0
M  V30 74 H 10.472 -1.94259 -0.554457 0
M  V30 75 H 8.70101 -1.67166 -0.289211 0
M  V30 76 H 11.1373 -1.06437 1.16636 0
M  V30 77 H 0.209741 -2.37412 -0.318797 0
M  V30 78 H -0.404235 -2.14266 1.37306 0
M  V30 79 H -3.465 -2.86144 1.59737 0
M  V30 80 H -5.48913 -4.05706 2.43584 0
M  V30 81 H -7.93954 -1.00432 0.791915 0
M  V30 82 H -5.90048 0.164764 -0.0317904 0
M  V30 83 H -8.19541 -5.34819 0.788825 0
M  V30 84 H -9.85288 -5.01784 1.36 0
M  V30 85 H -8.29458 -3.42363 -0.701303 0
M  V30 86 H -9.65008 -4.62687 -0.968136 0
M  V30 87 H -11.2324 -4.10348 -2.20612 0
M  V30 END ATOM
M  V30 BEGIN BOND
M  V30 1 1 1 2
M  V30 2 2 2 3
M  V30 3 1 3 4
M  V30 4 2 4 5 CFG=2
M  V30 5 1 5 6
M  V30 6 2 6 7
M  V30 7 1 7 8
M  V30 8 2 8 9
M  V30 9 1 9 10
M  V30 10 2 10 11
M  V30 11 1 7 12
M  V30 12 1 12 13
M  V30 13 2 12 14
M  V30 14 2 12 15
M  V30 15 1 3 16
M  V30 16 1 16 17
M  V30 17 1 17 18
M  V30 18 2 17 19
M  V30 19 2 16 20
M  V30 20 1 20 21
M  V30 21 2 21 22 CFG=2
M  V30 22 1 22 23
M  V30 23 2 23 24
M  V30 24 1 24 25
M  V30 25 2 25 26
M  V30 26 1 26 27
M  V30 27 2 27 28
M  V30 28 1 26 29
M  V30 29 2 29 30
M  V30 30 2 29 31
M  V30 31 1 29 32
M  V30 32 1 32 33
M  V30 33 1 33 34
M  V30 34 1 34 35
M  V30 35 1 35 36
M  V30 36 2 35 37
M  V30 37 2 35 38
M  V30 38 1 20 39
M  V30 39 1 39 40
M  V30 40 2 39 41
M  V30 41 1 41 42
M  V30 42 2 42 43 CFG=2
M  V30 43 1 43 44
M  V30 44 2 44 45
M  V30 45 1 45 46
M  V30 46 2 46 47
M  V30 47 1 47 48
M  V30 48 2 48 49
M  V30 49 1 47 50
M  V30 50 2 50 51
M  V30 51 2 50 52
M  V30 52 1 50 53
M  V30 53 1 53 54
M  V30 54 1 54 55
M  V30 55 1 55 56
M  V30 56 1 56 57
M  V30 57 2 56 58
M  V30 58 2 56 59
M  V30 59 1 41 2
M  V30 60 1 49 44
M  V30 61 1 11 6
M  V30 62 1 28 23
M  V30 63 1 1 60
M  V30 64 1 1 61
M  V30 65 1 8 62
M  V30 66 1 9 63
M  V30 67 1 10 64
M  V30 68 1 11 65
M  V30 69 1 13 66
M  V30 70 1 18 67
M  V30 71 1 24 68
M  V30 72 1 25 69
M  V30 73 1 27 70
M  V30 74 1 28 71
M  V30 75 1 32 72
M  V30 76 1 32 73
M  V30 77 1 33 74
M  V30 78 1 33 75
M  V30 79 1 36 76
M  V30 80 1 40 77
M  V30 81 1 40 78
M  V30 82 1 45 79
M  V30 83 1 46 80
M  V30 84 1 48 81
M  V30 85 1 49 82
M  V30 86 1 53 83
M  V30 87 1 53 84
M  V30 88 1 54 85
M  V30 89 1 54 86
M  V30 90 1 57 87
M  V30 END BOND
M  V30 END CTAB
M  END
