
     RDKit          3D

  0  0  0  0  0  0  0  0  0  0999 V3000
M  V30 BEGIN CTAB
M  V30 COUNTS 26 25 0 0 0
M  V30 BEGIN ATOM
M  V30 1 N 2.39504 -0.253603 1.33698 0
M  V30 2 C 2.35976 -0.988163 0.100846 0
M  V30 3 C 1.11561 -0.461504 -0.665699 0
M  V30 4 C -0.04599 -0.756031 0.228479 0
M  V30 5 N -1.34051 -0.407354 -0.210765 0
M  V30 6 S -1.93326 1.01328 0.529313 0
M  V30 7 O -1.33631 1.22118 1.89613 0
M  V30 8 O -3.4351 0.927078 0.742336 0
M  V30 9 N -1.65291 2.36143 -0.498204 0
M  V30 10 C -2.31198 -1.4662 -0.087107 0
M  V30 11 C 1.35737 1.01183 -0.894964 0
M  V30 12 H 3.21571 0.361034 1.44844 0
M  V30 13 H 2.09777 -0.772123 2.16084 0
M  V30 14 H 3.26335 -0.841662 -0.51999 0
M  V30 15 H 2.26344 -2.08028 0.271879 0
M  V30 16 H 1.05904 -0.996257 -1.63312 0
M  V30 17 H -0.0784774 -1.85481 0.503278 0
M  V30 18 H 0.115921 -0.257544 1.23506 0
M  V30 19 H -2.27345 3.1631 -0.308028 0
M  V30 20 H -1.63996 2.10537 -1.49982 0
M  V30 21 H -3.21017 -1.17362 -0.633639 0
M  V30 22 H -2.59011 -1.52506 0.995333 0
M  V30 23 H -1.89985 -2.43905 -0.403238 0
M  V30 24 H 2.4878 1.14527 -1.02238 0
M  V30 25 H 1.1637 1.56308 0.0452554 0
M  V30 26 H 0.853562 1.40061 -1.7737 0
M  V30 END ATOM
M  V30 BEGIN BOND
M  V30 1 1 1 2
M  V30 2 1 2 3
M  V30 3 1 3 4
M  V30 4 1 4 5
M  V30 5 1 5 6
M  V30 6 2 6 7
M  V30 7 2 6 8
M  V30 8 1 6 9
M  V30 9 1 5 10
M  V30 10 1 3 11
M  V30 11 1 1 12
M  V30 12 1 1 13
M  V30 13 1 2 14
M  V30 14 1 2 15
M  V30 15 1 3 16
M  V30 16 1 4 17
M  V30 17 1 4 18
M  V30 18 1 9 19
M  V30 19 1 9 20
M  V30 20 1 10 21
M  V30 21 1 10 22
M  V30 22 1 10 23
M  V30 23 1 11 24
M  V30 24 1 11 25
M  V30 25 1 11 26
M  V30 END BOND
M  V30 END CTAB
M  END
