
     RDKit          3D

  0  0  0  0  0  0  0  0  0  0999 V3000
M  V30 BEGIN CTAB
M  V30 COUNTS 33 35 0 0 0
M  V30 BEGIN ATOM
M  V30 1 N -5.72375 1.10889 0.952598 0
M  V30 2 C -4.43353 0.696791 0.489404 0
M  V30 3 N -3.54699 1.57317 -0.0112126 0
M  V30 4 C -2.34577 1.16298 -0.438244 0
M  V30 5 C -1.43437 2.08872 -0.956733 0
M  V30 6 C -0.221164 1.63795 -1.38223 0
M  V30 7 C 0.119654 0.312388 -1.31322 0
M  V30 8 C -0.767975 -0.604123 -0.805901 0
M  V30 9 C -2.00259 -0.170388 -0.368965 0
M  V30 10 C -2.91063 -1.08341 0.146208 0
M  V30 11 N -2.52579 -2.44633 0.203062 0
M  V30 12 N -4.09987 -0.61352 0.558951 0
M  V30 13 S 1.68305 -0.283405 -1.85914 0
M  V30 14 O 2.18686 0.644028 -2.9514 0
M  V30 15 O 1.51378 -1.67162 -2.39866 0
M  V30 16 C 2.84803 -0.258594 -0.554767 0
M  V30 17 C 3.6497 0.846762 -0.307358 0
M  V30 18 C 4.56329 0.849741 0.725392 0
M  V30 19 C 4.71635 -0.24346 1.55185 0
M  V30 20 F 5.62255 -0.225073 2.56704 0
M  V30 21 C 3.91641 -1.34281 1.30281 0
M  V30 22 C 2.99139 -1.3587 0.264826 0
M  V30 23 H -6.56742 1.10963 0.344168 0
M  V30 24 H -5.83307 1.42303 1.93878 0
M  V30 25 H -1.71132 3.11843 -1.00535 0
M  V30 26 H 0.505185 2.33889 -1.78967 0
M  V30 27 H -0.535893 -1.66817 -0.733517 0
M  V30 28 H -2.63676 -2.97966 1.09365 0
M  V30 29 H -2.13198 -2.93459 -0.626216 0
M  V30 30 H 3.50966 1.69196 -0.97089 0
M  V30 31 H 5.18036 1.71011 0.910121 0
M  V30 32 H 4.04462 -2.19455 1.95689 0
M  V30 33 H 2.378 -2.23506 0.0938286 0
M  V30 END ATOM
M  V30 BEGIN BOND
M  V30 1 1 1 2
M  V30 2 2 2 3
M  V30 3 1 3 4
M  V30 4 2 4 5
M  V30 5 1 5 6
M  V30 6 2 6 7
M  V30 7 1 7 8
M  V30 8 2 8 9
M  V30 9 1 9 10
M  V30 10 1 10 11
M  V30 11 2 10 12
M  V30 12 1 7 13
M  V30 13 2 13 14
M  V30 14 2 13 15
M  V30 15 1 13 16
M  V30 16 2 16 17
M  V30 17 1 17 18
M  V30 18 2 18 19
M  V30 19 1 19 20
M  V30 20 1 19 21
M  V30 21 2 21 22
M  V30 22 1 12 2
M  V30 23 1 22 16
M  V30 24 1 9 4
M  V30 25 1 1 23
M  V30 26 1 1 24
M  V30 27 1 5 25
M  V30 28 1 6 26
M  V30 29 1 8 27
M  V30 30 1 11 28
M  V30 31 1 11 29
M  V30 32 1 17 30
M  V30 33 1 18 31
M  V30 34 1 21 32
M  V30 35 1 22 33
M  V30 END BOND
M  V30 END CTAB
M  END
