
     RDKit          3D

  0  0  0  0  0  0  0  0  0  0999 V3000
M  V30 BEGIN CTAB
M  V30 COUNTS 45 47 0 0 0
M  V30 BEGIN ATOM
M  V30 1 N 0.680634 -2.90493 -3.08936 0
M  V30 2 C 1.18406 -2.22104 -2.30458 0
M  V30 3 C 1.83303 -1.36634 -1.31707 0
M  V30 4 C 2.92264 -1.78405 -0.715608 0
M  V30 5 N 3.43011 -3.0733 -1.05958 0
M  V30 6 O 3.568 -1.0058 0.225259 0
M  V30 7 C 3.04904 0.238069 0.534322 0
M  V30 8 C 1.91099 0.721911 -0.0667385 0
M  V30 9 C 1.18237 -0.0514133 -1.06677 0
M  V30 10 C -0.254161 -0.177166 -0.817422 0
M  V30 11 C -1.15455 0.725201 -1.33521 0
M  V30 12 C -2.52879 0.595487 -1.09072 0
M  V30 13 O -3.45105 1.49757 -1.60584 0
M  V30 14 C -2.99651 2.58581 -2.40463 0
M  V30 15 C -3.0024 -0.444377 -0.323136 0
M  V30 16 C -2.109 -1.35276 0.199562 0
M  V30 17 C -0.758656 -1.20522 -0.0544575 0
M  V30 18 O -2.58926 -2.41395 0.982529 0
M  V30 19 C -1.63774 -3.34354 1.51356 0
M  V30 20 O -4.37888 -0.592714 -0.0656387 0
M  V30 21 C -4.90385 0.0369884 1.07225 0
M  V30 22 C 1.47917 1.96931 0.310988 0
M  V30 23 C 2.16336 2.71107 1.26053 0
M  V30 24 C 3.31194 2.21369 1.86211 0
M  V30 25 C 3.74733 0.966461 1.48714 0
M  V30 26 N 4.01183 2.98588 2.8414 0
M  V30 27 H 4.27655 -3.40787 -0.59184 0
M  V30 28 H 2.96287 -3.67646 -1.76962 0
M  V30 29 H 1.30127 0.504852 -2.04989 0
M  V30 30 H -0.811731 1.53709 -1.93154 0
M  V30 31 H -2.42283 3.32438 -1.8138 0
M  V30 32 H -3.81809 3.05834 -2.95859 0
M  V30 33 H -2.2806 2.20198 -3.1818 0
M  V30 34 H -0.0888234 -1.96163 0.389264 0
M  V30 35 H -1.03868 -2.79637 2.27311 0
M  V30 36 H -1.01592 -3.75647 0.694942 0
M  V30 37 H -2.16506 -4.15769 2.03031 0
M  V30 38 H -5.90132 0.470523 0.801302 0
M  V30 39 H -5.06696 -0.677181 1.91436 0
M  V30 40 H -4.29014 0.875124 1.44659 0
M  V30 41 H 0.591135 2.36105 -0.150693 0
M  V30 42 H 1.83708 3.69741 1.57097 0
M  V30 43 H 4.64769 0.588415 1.96545 0
M  V30 44 H 3.58112 3.79216 3.33426 0
M  V30 45 H 4.99278 2.71147 3.05435 0
M  V30 END ATOM
M  V30 BEGIN BOND
M  V30 1 3 1 2
M  V30 2 1 2 3
M  V30 3 2 3 4
M  V30 4 1 4 5
M  V30 5 1 4 6
M  V30 6 1 6 7
M  V30 7 2 7 8
M  V30 8 1 8 9
M  V30 9 1 9 10
M  V30 10 2 10 11
M  V30 11 1 11 12
M  V30 12 1 12 13
M  V30 13 1 13 14
M  V30 14 2 12 15
M  V30 15 1 15 16
M  V30 16 2 16 17
M  V30 17 1 16 18
M  V30 18 1 18 19
M  V30 19 1 15 20
M  V30 20 1 20 21
M  V30 21 1 8 22
M  V30 22 2 22 23
M  V30 23 1 23 24
M  V30 24 2 24 25
M  V30 25 1 24 26
M  V30 26 1 9 3
M  V30 27 1 17 10
M  V30 28 1 25 7
M  V30 29 1 5 27
M  V30 30 1 5 28
M  V30 31 1 9 29
M  V30 32 1 11 30
M  V30 33 1 14 31
M  V30 34 1 14 32
M  V30 35 1 14 33
M  V30 36 1 17 34
M  V30 37 1 19 35
M  V30 38 1 19 36
M  V30 39 1 19 37
M  V30 40 1 21 38
M  V30 41 1 21 39
M  V30 42 1 21 40
M  V30 43 1 22 41
M  V30 44 1 23 42
M  V30 45 1 25 43
M  V30 46 1 26 44
M  V30 47 1 26 45
M  V30 END BOND
M  V30 END CTAB
M  END
