
     RDKit          3D

  0  0  0  0  0  0  0  0  0  0999 V3000
M  V30 BEGIN CTAB
M  V30 COUNTS 20 20 0 0 0
M  V30 BEGIN ATOM
M  V30 1 N -3.31713 -0.880376 0.0129769 0
M  V30 2 C -1.93546 -0.577603 -0.0334195 0
M  V30 3 C -0.971243 -1.55787 -0.238476 0
M  V30 4 C 0.364532 -1.22244 -0.277112 0
M  V30 5 C 0.8249 0.0661545 -0.120423 0
M  V30 6 C -0.147465 1.02302 0.0817733 0
M  V30 7 C -1.48932 0.726088 0.126389 0
M  V30 8 Br -2.79805 2.08653 0.409092 0
M  V30 9 N 0.21594 2.40714 0.25865 0
M  V30 10 O 2.11926 0.481288 -0.144805 0
M  V30 11 C 3.26075 -0.281866 -0.329971 0
M  V30 12 F 3.44715 -1.26229 0.609715 0
M  V30 13 F 3.21313 -0.850127 -1.58847 0
M  V30 14 F 4.35919 0.584463 -0.335754 0
M  V30 15 H -3.88563 -0.615876 0.838252 0
M  V30 16 H -3.77773 -1.36614 -0.768957 0
M  V30 17 H -1.32618 -2.56709 -0.361548 0
M  V30 18 H 1.10547 -1.99191 -0.43702 0
M  V30 19 H 1.00834 2.77258 -0.316133 0
M  V30 20 H -0.270461 3.02633 0.916893 0
M  V30 END ATOM
M  V30 BEGIN BOND
M  V30 1 1 1 2
M  V30 2 2 2 3
M  V30 3 1 3 4
M  V30 4 2 4 5
M  V30 5 1 5 6
M  V30 6 2 6 7
M  V30 7 1 7 8
M  V30 8 1 6 9
M  V30 9 1 5 10
M  V30 10 1 10 11
M  V30 11 1 11 12
M  V30 12 1 11 13
M  V30 13 1 11 14
M  V30 14 1 7 2
M  V30 15 1 1 15
M  V30 16 1 1 16
M  V30 17 1 3 17
M  V30 18 1 4 18
M  V30 19 1 9 19
M  V30 20 1 9 20
M  V30 END BOND
M  V30 END CTAB
M  END
