
     RDKit          3D

  0  0  0  0  0  0  0  0  0  0999 V3000
M  V30 BEGIN CTAB
M  V30 COUNTS 29 29 0 0 0
M  V30 BEGIN ATOM
M  V30 1 C 2.98069 1.36889 -0.499894 0
M  V30 2 O 1.77693 0.729121 -0.705315 0
M  V30 3 C 1.11921 0.455499 0.492329 0 CFG=1
M  V30 4 O -0.0607893 1.15885 0.541767 0
M  V30 5 C -1.04491 0.619373 -0.285393 0 CFG=2
M  V30 6 C -2.20032 1.56718 -0.435107 0
M  V30 7 N -2.80297 1.85523 0.829785 0
M  V30 8 C -1.4596 -0.678043 0.377949 0 CFG=1
M  V30 9 O -2.60988 -1.17589 -0.164757 0
M  V30 10 C -0.294626 -1.61383 0.242097 0 CFG=2
M  V30 11 O -0.561849 -2.77101 0.990556 0
M  V30 12 C 0.995612 -1.0176 0.653815 0 CFG=1
M  V30 13 N 2.05458 -1.67531 -0.131573 0
M  V30 14 H 3.44723 1.55513 -1.48448 0
M  V30 15 H 2.78226 2.36553 -0.0468601 0
M  V30 16 H 3.68969 0.801752 0.121524 0
M  V30 17 H 1.76603 0.84026 1.30909 0
M  V30 18 H -0.607997 0.414592 -1.28032 0
M  V30 19 H -1.90248 2.44432 -1.01581 0
M  V30 20 H -2.98294 1.03839 -1.05291 0
M  V30 21 H -3.77264 2.21113 0.745116 0
M  V30 22 H -2.23546 2.6364 1.26781 0
M  V30 23 H -1.63097 -0.48585 1.47265 0
M  V30 24 H -2.47488 -1.91247 -0.807477 0
M  V30 25 H -0.253436 -1.94095 -0.834325 0
M  V30 26 H 0.270659 -3.27168 1.18747 0
M  V30 27 H 1.20403 -1.32746 1.71575 0
M  V30 28 H 1.81856 -2.6967 -0.233951 0
M  V30 29 H 2.99028 -1.49487 0.246214 0
M  V30 END ATOM
M  V30 BEGIN BOND
M  V30 1 1 1 2
M  V30 2 1 2 3
M  V30 3 1 3 4
M  V30 4 1 4 5
M  V30 5 1 5 6
M  V30 6 1 6 7
M  V30 7 1 5 8
M  V30 8 1 8 9
M  V30 9 1 8 10
M  V30 10 1 10 11
M  V30 11 1 10 12
M  V30 12 1 12 13
M  V30 13 1 12 3
M  V30 14 1 1 14
M  V30 15 1 1 15
M  V30 16 1 1 16
M  V30 17 1 3 17 CFG=1
M  V30 18 1 5 18 CFG=3
M  V30 19 1 6 19
M  V30 20 1 6 20
M  V30 21 1 7 21
M  V30 22 1 7 22
M  V30 23 1 8 23 CFG=1
M  V30 24 1 9 24
M  V30 25 1 10 25 CFG=3
M  V30 26 1 11 26
M  V30 27 1 12 27 CFG=1
M  V30 28 1 13 28
M  V30 29 1 13 29
M  V30 END BOND
M  V30 END CTAB
M  END
