
     RDKit          3D

  0  0  0  0  0  0  0  0  0  0999 V3000
M  V30 BEGIN CTAB
M  V30 COUNTS 18 18 0 0 0
M  V30 BEGIN ATOM
M  V30 1 F -2.72893 -0.0315615 -1.46531 0
M  V30 2 C -2.29159 -0.700653 -0.319361 0
M  V30 3 C -0.822994 -0.560697 -0.137112 0
M  V30 4 C -0.0291321 -1.67985 -0.114287 0
M  V30 5 N 1.29015 -1.52178 0.0514928 0
M  V30 6 C 1.83936 -0.280682 0.194969 0
M  V30 7 C 1.06028 0.857093 0.175071 0
M  V30 8 C -0.305088 0.706526 0.00432271 0
M  V30 9 N -1.15064 1.85148 -0.0230021 0
M  V30 10 N 3.23306 -0.110744 0.370293 0
M  V30 11 F -2.68552 -2.00273 -0.412191 0
M  V30 12 F -2.99318 -0.129805 0.7339 0
M  V30 13 H -0.519317 -2.63897 -0.23295 0
M  V30 14 H 1.52592 1.83251 0.291855 0
M  V30 15 H -1.57377 2.127 0.887744 0
M  V30 16 H -1.36038 2.40216 -0.858582 0
M  V30 17 H 3.62232 0.644879 0.950374 0
M  V30 18 H 3.88944 -0.764169 -0.0972264 0
M  V30 END ATOM
M  V30 BEGIN BOND
M  V30 1 1 1 2
M  V30 2 1 2 3
M  V30 3 2 3 4
M  V30 4 1 4 5
M  V30 5 2 5 6
M  V30 6 1 6 7
M  V30 7 2 7 8
M  V30 8 1 8 9
M  V30 9 1 6 10
M  V30 10 1 2 11
M  V30 11 1 2 12
M  V30 12 1 8 3
M  V30 13 1 4 13
M  V30 14 1 7 14
M  V30 15 1 9 15
M  V30 16 1 9 16
M  V30 17 1 10 17
M  V30 18 1 10 18
M  V30 END BOND
M  V30 END CTAB
M  END
