
     RDKit          3D

  0  0  0  0  0  0  0  0  0  0999 V3000
M  V30 BEGIN CTAB
M  V30 COUNTS 37 38 0 0 0
M  V30 BEGIN ATOM
M  V30 1 N 2.0892 -0.650431 2.31155 0
M  V30 2 C 2.37537 -0.247513 0.967816 0
M  V30 3 C 3.66946 -0.119706 0.561825 0
M  V30 4 C 3.96221 0.198128 -0.743044 0
M  V30 5 C 2.95442 0.392136 -1.66444 0
M  V30 6 C 1.64647 0.25693 -1.22374 0
M  V30 7 C 1.3284 -0.0580418 0.071513 0
M  V30 8 C -0.0667224 -0.072347 0.608277 0 CFG=2
M  V30 9 C -0.561019 -1.45233 0.549176 0
M  V30 10 C -1.01193 -2.06808 -0.695589 0
M  V30 11 C -2.51796 -1.84124 -0.837247 0
M  V30 12 C -2.85092 -0.369711 -0.623704 0
M  V30 13 C -1.67101 0.393233 -1.1563 0
M  V30 14 N -0.838877 0.852201 -0.137459 0
M  V30 15 S -0.851999 2.46365 0.245689 0
M  V30 16 O -1.78302 3.1819 -0.74205 0
M  V30 17 O 0.4927 3.10147 0.0956551 0
M  V30 18 N -1.44742 2.85434 1.83435 0
M  V30 19 H 1.64441 -0.0799852 3.04487 0
M  V30 20 H 2.35709 -1.64767 2.54214 0
M  V30 21 H 4.51374 -0.27976 1.26412 0
M  V30 22 H 5.01497 0.285449 -1.02446 0
M  V30 23 H 3.18814 0.652563 -2.69372 0
M  V30 24 H 0.899495 0.436464 -1.99207 0
M  V30 25 H -0.0167604 0.266388 1.65205 0
M  V30 26 H 0.271294 -2.09529 0.986585 0
M  V30 27 H -1.37607 -1.61406 1.31424 0
M  V30 28 H -0.96642 -3.20462 -0.520067 0
M  V30 29 H -0.44716 -1.94252 -1.60859 0
M  V30 30 H -2.9234 -2.23856 -1.7549 0
M  V30 31 H -2.98191 -2.39235 0.0367914 0
M  V30 32 H -3.77014 -0.134063 -1.18847 0
M  V30 33 H -3.00674 -0.167861 0.434485 0
M  V30 34 H -2.10588 1.30556 -1.67614 0
M  V30 35 H -1.18765 -0.148397 -1.99631 0
M  V30 36 H -2.31733 2.29493 1.99409 0
M  V30 37 H -1.70704 3.8892 1.76307 0
M  V30 END ATOM
M  V30 BEGIN BOND
M  V30 1 1 1 2
M  V30 2 2 2 3
M  V30 3 1 3 4
M  V30 4 2 4 5
M  V30 5 1 5 6
M  V30 6 2 6 7
M  V30 7 1 7 8
M  V30 8 1 8 9
M  V30 9 1 9 10
M  V30 10 1 10 11
M  V30 11 1 11 12
M  V30 12 1 12 13
M  V30 13 1 13 14
M  V30 14 1 14 15
M  V30 15 2 15 16
M  V30 16 2 15 17
M  V30 17 1 15 18
M  V30 18 1 7 2
M  V30 19 1 14 8
M  V30 20 1 1 19
M  V30 21 1 1 20
M  V30 22 1 3 21
M  V30 23 1 4 22
M  V30 24 1 5 23
M  V30 25 1 6 24
M  V30 26 1 8 25 CFG=1
M  V30 27 1 9 26
M  V30 28 1 9 27
M  V30 29 1 10 28
M  V30 30 1 10 29
M  V30 31 1 11 30
M  V30 32 1 11 31
M  V30 33 1 12 32
M  V30 34 1 12 33
M  V30 35 1 13 34
M  V30 36 1 13 35
M  V30 37 1 18 36
M  V30 38 1 18 37
M  V30 END BOND
M  V30 END CTAB
M  END
