
     RDKit          3D

  0  0  0  0  0  0  0  0  0  0999 V3000
M  V30 BEGIN CTAB
M  V30 COUNTS 25 25 0 0 0
M  V30 BEGIN ATOM
M  V30 1 N 4.06587 3.05413 -0.0946872 0
M  V30 2 C 3.73288 1.68409 -0.148681 0
M  V30 3 S 4.92023 0.581505 -0.0203266 0
M  V30 4 N 2.38707 1.29805 -0.311329 0
M  V30 5 N 2.08291 -0.0599706 -0.363571 0
M  V30 6 C 0.722264 -0.458248 -0.204522 0
M  V30 7 C 0.294543 -0.736774 1.07506 0
M  V30 8 C -1.02433 -1.11788 1.2154 0
M  V30 9 C -1.87396 -1.2168 0.138664 0
M  V30 10 C -1.38765 -0.925028 -1.11872 0
M  V30 11 C -0.0625829 -0.534133 -1.32372 0
M  V30 12 S -3.55904 -1.70815 0.352523 0
M  V30 13 N -4.48083 -0.293366 0.626316 0
M  V30 14 O -3.95902 -2.38735 -0.933493 0
M  V30 15 O -3.61467 -2.6764 1.49862 0
M  V30 16 H 4.9484 3.37691 -0.519737 0
M  V30 17 H 3.43855 3.73832 0.364025 0
M  V30 18 H 1.63839 2.02291 -0.390285 0
M  V30 19 H 2.83314 -0.750709 -0.514714 0
M  V30 20 H 0.971506 -0.65837 1.93516 0
M  V30 21 H -1.36765 -1.33836 2.21892 0
M  V30 22 H -2.06714 -1.00944 -1.94154 0
M  V30 23 H 0.306206 -0.306716 -2.32456 0
M  V30 24 H -5.07385 -0.112004 -0.217558 0
M  V30 25 H -3.87122 0.533796 0.808661 0
M  V30 END ATOM
M  V30 BEGIN BOND
M  V30 1 1 1 2
M  V30 2 2 2 3
M  V30 3 1 2 4
M  V30 4 1 4 5
M  V30 5 1 5 6
M  V30 6 2 6 7
M  V30 7 1 7 8
M  V30 8 2 8 9
M  V30 9 1 9 10
M  V30 10 2 10 11
M  V30 11 1 9 12
M  V30 12 1 12 13
M  V30 13 2 12 14
M  V30 14 2 12 15
M  V30 15 1 11 6
M  V30 16 1 1 16
M  V30 17 1 1 17
M  V30 18 1 4 18
M  V30 19 1 5 19
M  V30 20 1 7 20
M  V30 21 1 8 21
M  V30 22 1 10 22
M  V30 23 1 11 23
M  V30 24 1 13 24
M  V30 25 1 13 25
M  V30 END BOND
M  V30 END CTAB
M  END
