
     RDKit          3D

  0  0  0  0  0  0  0  0  0  0999 V3000
M  V30 BEGIN CTAB
M  V30 COUNTS 33 34 0 0 0
M  V30 BEGIN ATOM
M  V30 1 N 1.65966 0.912175 -2.69081 0
M  V30 2 C 2.5536 0.69301 -1.60003 0
M  V30 3 N 3.82541 1.17175 -1.62755 0
M  V30 4 C 4.68723 0.987652 -0.630275 0
M  V30 5 N 6.01624 1.48022 -0.643631 0
M  V30 6 C 4.28828 0.282229 0.487644 0
M  V30 7 Cl 5.36895 -0.00121557 1.84327 0
M  V30 8 N 3.02744 -0.200325 0.53079 0
M  V30 9 C 2.16513 -0.00956339 -0.480149 0
M  V30 10 C 0.814111 -0.559008 -0.36924 0
M  V30 11 O -0.0109913 -0.402324 -1.28489 0
M  V30 12 N 0.415177 -1.28354 0.786838 0
M  V30 13 C -0.893416 -1.8186 0.899983 0
M  V30 14 N -1.20836 -2.46579 1.96291 0
M  V30 15 N -1.87058 -1.66375 -0.123102 0
M  V30 16 C -2.93261 -0.711713 -0.0121243 0
M  V30 17 C -3.86286 -0.586178 -1.02024 0
M  V30 18 C -4.90623 0.32993 -0.941144 0
M  V30 19 C -4.96994 1.11063 0.194646 0
M  V30 20 C -4.03106 0.981174 1.20781 0
M  V30 21 C -3.00007 0.0703974 1.12099 0
M  V30 22 H 1.7936 0.387483 -3.57323 0
M  V30 23 H 0.874179 1.59447 -2.60796 0
M  V30 24 H 6.54206 1.4711 -1.54324 0
M  V30 25 H 6.51308 1.85607 0.191822 0
M  V30 26 H 1.10765 -1.41421 1.55365 0
M  V30 27 H -0.57701 -2.63317 2.75843 0
M  V30 28 H -1.80505 -2.26267 -0.972848 0
M  V30 29 H -3.82809 -1.18972 -1.91706 0
M  V30 30 H -5.64409 0.440508 -1.7236 0
M  V30 31 H -5.75895 1.85108 0.328867 0
M  V30 32 H -4.07315 1.5929 2.10788 0
M  V30 33 H -2.27934 -0.011006 1.92679 0
M  V30 END ATOM
M  V30 BEGIN BOND
M  V30 1 1 1 2
M  V30 2 2 2 3
M  V30 3 1 3 4
M  V30 4 1 4 5
M  V30 5 2 4 6
M  V30 6 1 6 7
M  V30 7 1 6 8
M  V30 8 2 8 9
M  V30 9 1 9 10
M  V30 10 2 10 11
M  V30 11 1 10 12
M  V30 12 1 12 13
M  V30 13 2 13 14 CFG=2
M  V30 14 1 13 15
M  V30 15 1 15 16
M  V30 16 2 16 17
M  V30 17 1 17 18
M  V30 18 2 18 19
M  V30 19 1 19 20
M  V30 20 2 20 21
M  V30 21 1 9 2
M  V30 22 1 21 16
M  V30 23 1 1 22
M  V30 24 1 1 23
M  V30 25 1 5 24
M  V30 26 1 5 25
M  V30 27 1 12 26
M  V30 28 1 14 27
M  V30 29 1 15 28
M  V30 30 1 17 29
M  V30 31 1 18 30
M  V30 32 1 19 31
M  V30 33 1 20 32
M  V30 34 1 21 33
M  V30 END BOND
M  V30 END CTAB
M  END
