
     RDKit          3D

  0  0  0  0  0  0  0  0  0  0999 V3000
M  V30 BEGIN CTAB
M  V30 COUNTS 35 36 0 0 0
M  V30 BEGIN ATOM
M  V30 1 C -4.33966 -1.29692 -3.46028e-05 0
M  V30 2 C -3.25006 -0.339518 -0.497158 0
M  V30 3 S -1.78255 -1.2548 -0.958789 0
M  V30 4 C -0.683141 -0.0779763 -1.84183 0
M  V30 5 C -0.551857 1.11945 -0.888869 0
M  V30 6 N -0.563972 0.614427 0.43098 0
M  V30 7 C -1.74738 0.786008 1.18146 0
M  V30 8 C -3.02406 0.787531 0.434208 0
M  V30 9 C 0.60407 0.832573 1.20697 0
M  V30 10 C 1.83897 0.254853 0.671524 0
M  V30 11 N 2.62299 0.966239 -0.159346 0
M  V30 12 C 3.76997 0.463539 -0.671829 0
M  V30 13 N 4.57426 1.24544 -1.54795 0
M  V30 14 N 4.14748 -0.764442 -0.356534 0
M  V30 15 C 3.40631 -1.5107 0.462515 0
M  V30 16 N 2.25231 -0.99122 0.971904 0
M  V30 17 N 3.84683 -2.81065 0.769915 0
M  V30 18 H -4.29418 -2.18636 -0.655621 0
M  V30 19 H -4.23453 -1.51922 1.06268 0
M  V30 20 H -5.34609 -0.813223 -0.15861 0
M  V30 21 H -3.67846 0.0909719 -1.45154 0
M  V30 22 H -1.23917 0.235605 -2.74994 0
M  V30 23 H 0.288077 -0.524475 -2.0668 0
M  V30 24 H -1.41538 1.77816 -1.11522 0
M  V30 25 H 0.352779 1.69054 -1.17835 0
M  V30 26 H -1.67466 1.75601 1.73584 0
M  V30 27 H -1.75717 0.00583863 1.99586 0
M  V30 28 H -3.1582 1.79613 -0.0568345 0
M  V30 29 H -3.85797 0.761079 1.19839 0
M  V30 30 H 0.711486 1.94792 1.34723 0
M  V30 31 H 0.398964 0.451745 2.24293 0
M  V30 32 H 5.59182 1.38723 -1.36755 0
M  V30 33 H 4.18208 1.70102 -2.39345 0
M  V30 34 H 3.21706 -3.61914 0.617649 0
M  V30 35 H 4.79305 -2.96366 1.14601 0
M  V30 END ATOM
M  V30 BEGIN BOND
M  V30 1 1 1 2
M  V30 2 1 2 3
M  V30 3 1 3 4
M  V30 4 1 4 5
M  V30 5 1 5 6
M  V30 6 1 6 7
M  V30 7 1 7 8
M  V30 8 1 6 9
M  V30 9 1 9 10
M  V30 10 2 10 11
M  V30 11 1 11 12
M  V30 12 1 12 13
M  V30 13 2 12 14
M  V30 14 1 14 15
M  V30 15 2 15 16
M  V30 16 1 15 17
M  V30 17 1 8 2
M  V30 18 1 16 10
M  V30 19 1 1 18
M  V30 20 1 1 19
M  V30 21 1 1 20
M  V30 22 1 2 21
M  V30 23 1 4 22
M  V30 24 1 4 23
M  V30 25 1 5 24
M  V30 26 1 5 25
M  V30 27 1 7 26
M  V30 28 1 7 27
M  V30 29 1 8 28
M  V30 30 1 8 29
M  V30 31 1 9 30
M  V30 32 1 9 31
M  V30 33 1 13 32
M  V30 34 1 13 33
M  V30 35 1 17 34
M  V30 36 1 17 35
M  V30 END BOND
M  V30 END CTAB
M  END
