
     RDKit          3D

  0  0  0  0  0  0  0  0  0  0999 V3000
M  V30 BEGIN CTAB
M  V30 COUNTS 46 48 0 0 0
M  V30 BEGIN ATOM
M  V30 1 N 5.23875 3.24291 0.360162 0
M  V30 2 C 5.35274 1.85531 0.632776 0
M  V30 3 N 4.51751 1.20062 1.47187 0
M  V30 4 C 4.62053 -0.111902 1.7332 0
M  V30 5 S 3.47107 -0.887714 2.85606 0
M  V30 6 C 2.05807 -1.46909 1.88915 0
M  V30 7 C 1.26938 -0.348746 1.31665 0
M  V30 8 O 1.54201 0.857551 1.49455 0
M  V30 9 C 0.0912866 -0.667034 0.486504 0
M  V30 10 C -0.392568 -1.92566 0.197399 0
M  V30 11 C -1.50721 -1.81537 -0.596055 0
M  V30 12 N -1.71988 -0.480974 -0.80218 0
M  V30 13 C -0.762137 0.207601 -0.155231 0
M  V30 14 C -0.514805 1.68495 -0.0782101 0
M  V30 15 C -2.75207 0.139839 -1.57389 0
M  V30 16 C -4.01751 0.429446 -0.905298 0
M  V30 17 C -5.03219 -0.48072 -1.0089 0
M  V30 18 C -6.24378 -0.27199 -0.405577 0
M  V30 19 C -6.49035 0.872697 0.33513 0
M  V30 20 C -5.45381 1.77382 0.424028 0
M  V30 21 C -4.24184 1.56124 -0.181518 0
M  V30 22 C -2.31725 -2.92876 -1.13508 0
M  V30 23 N 5.60676 -0.791276 1.12271 0
M  V30 24 C 6.47499 -0.20416 0.274953 0
M  V30 25 N 6.32333 1.11283 0.0513588 0
M  V30 26 N 7.51992 -0.959337 -0.362263 0
M  V30 27 H 5.42087 3.95255 1.09638 0
M  V30 28 H 4.96612 3.52292 -0.60376 0
M  V30 29 H 2.41412 -2.07452 1.00672 0
M  V30 30 H 1.44231 -2.16437 2.49488 0
M  V30 31 H 0.05853 -2.85827 0.556082 0
M  V30 32 H -1.22988 2.18039 -0.730092 0
M  V30 33 H 0.523049 1.91568 -0.445301 0
M  V30 34 H -0.626207 2.04917 0.961448 0
M  V30 35 H -2.91106 -0.487097 -2.51416 0
M  V30 36 H -2.36029 1.09314 -1.98581 0
M  V30 37 H -4.93339 -1.40939 -1.58419 0
M  V30 38 H -7.0334 -1.03885 -0.518539 0
M  V30 39 H -7.45236 0.999115 0.792299 0
M  V30 40 H -5.65216 2.67591 1.00899 0
M  V30 41 H -3.50641 2.34164 -0.0490998 0
M  V30 42 H -3.0965 -3.2794 -0.428728 0
M  V30 43 H -2.72746 -2.7005 -2.14301 0
M  V30 44 H -1.65166 -3.82719 -1.29375 0
M  V30 45 H 8.50877 -0.922035 -0.0656784 0
M  V30 46 H 7.20606 -1.56496 -1.1668 0
M  V30 END ATOM
M  V30 BEGIN BOND
M  V30 1 1 1 2
M  V30 2 2 2 3
M  V30 3 1 3 4
M  V30 4 1 4 5
M  V30 5 1 5 6
M  V30 6 1 6 7
M  V30 7 2 7 8
M  V30 8 1 7 9
M  V30 9 1 9 10
M  V30 10 2 10 11
M  V30 11 1 11 12
M  V30 12 1 12 13
M  V30 13 1 13 14
M  V30 14 1 12 15
M  V30 15 1 15 16
M  V30 16 2 16 17
M  V30 17 1 17 18
M  V30 18 2 18 19
M  V30 19 1 19 20
M  V30 20 2 20 21
M  V30 21 1 11 22
M  V30 22 2 4 23
M  V30 23 1 23 24
M  V30 24 2 24 25
M  V30 25 1 24 26
M  V30 26 1 25 2
M  V30 27 2 13 9
M  V30 28 1 21 16
M  V30 29 1 1 27
M  V30 30 1 1 28
M  V30 31 1 6 29
M  V30 32 1 6 30
M  V30 33 1 10 31
M  V30 34 1 14 32
M  V30 35 1 14 33
M  V30 36 1 14 34
M  V30 37 1 15 35
M  V30 38 1 15 36
M  V30 39 1 17 37
M  V30 40 1 18 38
M  V30 41 1 19 39
M  V30 42 1 20 40
M  V30 43 1 21 41
M  V30 44 1 22 42
M  V30 45 1 22 43
M  V30 46 1 22 44
M  V30 47 1 26 45
M  V30 48 1 26 46
M  V30 END BOND
M  V30 END CTAB
M  END
