
     RDKit          3D

  0  0  0  0  0  0  0  0  0  0999 V3000
M  V30 BEGIN CTAB
M  V30 COUNTS 52 53 0 0 0
M  V30 BEGIN ATOM
M  V30 1 N 3.8294 -1.62873 -1.90291 0
M  V30 2 C 4.60506 -1.00664 -0.887188 0
M  V30 3 N 4.01494 -0.4741 0.125374 0
M  V30 4 N 2.61939 -0.542236 0.163605 0
M  V30 5 C 1.85187 0.464275 0.0817843 0
M  V30 6 C 0.39062 0.378909 0.123195 0
M  V30 7 C -0.38539 1.51236 0.029079 0
M  V30 8 C -1.75633 1.49099 0.0618565 0
M  V30 9 C -2.37739 0.25869 0.196943 0
M  V30 10 C -1.66015 -0.912342 0.296689 0
M  V30 11 C -0.272596 -0.815842 0.255829 0
M  V30 12 C -2.25215 -2.23678 0.455385 0
M  V30 13 C -3.07457 -2.29757 1.74953 0
M  V30 14 C -1.15773 -3.26582 0.636582 0
M  V30 15 C -3.09446 -2.66846 -0.721356 0
M  V30 16 O -3.73452 0.272975 0.22404 0
M  V30 17 C -2.50032 2.75136 -0.0465488 0
M  V30 18 C -3.37377 2.99255 1.19275 0
M  V30 19 C -3.36763 2.8416 -1.27155 0
M  V30 20 C -1.52067 3.89817 -0.0843447 0
M  V30 21 C 6.04997 -0.989125 -1.02092 0
M  V30 22 N 6.80089 -1.4958 -2.0059 0
M  V30 23 O 8.05794 -1.25992 -1.73065 0
M  V30 24 N 8.16962 -0.620685 -0.608798 0
M  V30 25 C 6.91155 -0.425738 -0.119249 0
M  V30 26 N 6.53836 0.220545 1.07043 0
M  V30 27 H 3.65362 -1.21817 -2.84046 0
M  V30 28 H 3.40259 -2.57156 -1.69155 0
M  V30 29 H 2.30718 1.43819 -0.024445 0
M  V30 30 H 0.135254 2.4704 -0.077186 0
M  V30 31 H 0.376257 -1.69871 0.327108 0
M  V30 32 H -4.1117 -2.5751 1.56464 0
M  V30 33 H -3.06866 -1.28443 2.2273 0
M  V30 34 H -2.64659 -2.99332 2.49035 0
M  V30 35 H -0.51382 -3.39739 -0.247635 0
M  V30 36 H -0.529674 -3.03526 1.51236 0
M  V30 37 H -1.61451 -4.27393 0.869178 0
M  V30 38 H -2.52873 -3.43288 -1.28746 0
M  V30 39 H -4.04207 -3.15203 -0.408891 0
M  V30 40 H -3.24841 -1.82067 -1.41765 0
M  V30 41 H -4.29649 -0.539046 0.30599 0
M  V30 42 H -2.81548 2.61819 2.07657 0
M  V30 43 H -4.35721 2.49238 1.09584 0
M  V30 44 H -3.53378 4.09415 1.24259 0
M  V30 45 H -3.50632 3.93119 -1.48798 0
M  V30 46 H -4.39243 2.44529 -1.08649 0
M  V30 47 H -2.8844 2.41162 -2.15531 0
M  V30 48 H -0.932984 3.90163 -1.02795 0
M  V30 49 H -0.88673 3.96322 0.827813 0
M  V30 50 H -2.06847 4.88938 -0.102926 0
M  V30 51 H 6.29427 -0.348391 1.91805 0
M  V30 52 H 6.49737 1.24263 1.13449 0
M  V30 END ATOM
M  V30 BEGIN BOND
M  V30 1 1 1 2
M  V30 2 2 2 3
M  V30 3 1 3 4
M  V30 4 2 4 5
M  V30 5 1 5 6
M  V30 6 2 6 7
M  V30 7 1 7 8
M  V30 8 2 8 9
M  V30 9 1 9 10
M  V30 10 2 10 11
M  V30 11 1 10 12
M  V30 12 1 12 13
M  V30 13 1 12 14
M  V30 14 1 12 15
M  V30 15 1 9 16
M  V30 16 1 8 17
M  V30 17 1 17 18
M  V30 18 1 17 19
M  V30 19 1 17 20
M  V30 20 1 2 21
M  V30 21 2 21 22
M  V30 22 1 22 23
M  V30 23 1 23 24
M  V30 24 2 24 25
M  V30 25 1 25 26
M  V30 26 1 11 6
M  V30 27 1 25 21
M  V30 28 1 1 27
M  V30 29 1 1 28
M  V30 30 1 5 29
M  V30 31 1 7 30
M  V30 32 1 11 31
M  V30 33 1 13 32
M  V30 34 1 13 33
M  V30 35 1 13 34
M  V30 36 1 14 35
M  V30 37 1 14 36
M  V30 38 1 14 37
M  V30 39 1 15 38
M  V30 40 1 15 39
M  V30 41 1 15 40
M  V30 42 1 16 41
M  V30 43 1 18 42
M  V30 44 1 18 43
M  V30 45 1 18 44
M  V30 46 1 19 45
M  V30 47 1 19 46
M  V30 48 1 19 47
M  V30 49 1 20 48
M  V30 50 1 20 49
M  V30 51 1 20 50
M  V30 52 1 26 51
M  V30 53 1 26 52
M  V30 END BOND
M  V30 END CTAB
M  END
