
     RDKit          3D

  0  0  0  0  0  0  0  0  0  0999 V3000
M  V30 BEGIN CTAB
M  V30 COUNTS 15 15 0 0 0
M  V30 BEGIN ATOM
M  V30 1 N 2.41084 -0.770822 -0.302869 0
M  V30 2 C 1.17619 -0.0700489 -0.169395 0
M  V30 3 C 0.0158283 -0.787021 0.0489324 0
M  V30 4 C -1.19287 -0.134303 0.181849 0
M  V30 5 N -2.39391 -0.865281 0.407048 0
M  V30 6 C -1.16905 1.24308 0.0853575 0
M  V30 7 N -0.0217667 1.92214 -0.12849 0
M  V30 8 C 1.16558 1.30413 -0.260629 0
M  V30 9 Br 2.79706 2.24236 -0.56291 0
M  V30 10 Br -2.84561 2.15575 0.269209 0
M  V30 11 H 3.3056 -0.268894 -0.442987 0
M  V30 12 H 2.43844 -1.81336 -0.26173 0
M  V30 13 H 0.01321 -1.87201 0.122585 0
M  V30 14 H -3.00043 -1.22751 -0.371722 0
M  V30 15 H -2.69913 -1.0582 1.38575 0
M  V30 END ATOM
M  V30 BEGIN BOND
M  V30 1 1 1 2
M  V30 2 2 2 3
M  V30 3 1 3 4
M  V30 4 1 4 5
M  V30 5 2 4 6
M  V30 6 1 6 7
M  V30 7 2 7 8
M  V30 8 1 8 9
M  V30 9 1 6 10
M  V30 10 1 8 2
M  V30 11 1 1 11
M  V30 12 1 1 12
M  V30 13 1 3 13
M  V30 14 1 5 14
M  V30 15 1 5 15
M  V30 END BOND
M  V30 END CTAB
M  END
