
     RDKit          3D

  0  0  0  0  0  0  0  0  0  0999 V3000
M  V30 BEGIN CTAB
M  V30 COUNTS 44 47 0 0 0
M  V30 BEGIN ATOM
M  V30 1 N -7.37971 -0.801802 0.237515 0
M  V30 2 C -6.25554 -1.0715 0.287905 0
M  V30 3 C -4.83807 -1.3881 0.348726 0
M  V30 4 C -4.54804 -2.66469 0.767995 0
M  V30 5 N -5.55016 -3.60072 1.11341 0
M  V30 6 N -3.234 -2.96417 0.826418 0
M  V30 7 C -2.27681 -2.04702 0.487527 0
M  V30 8 C -2.54245 -0.7722 0.0678114 0
M  V30 9 C -3.90635 -0.467102 0.00958787 0
M  V30 10 C -4.41447 0.855218 -0.415005 0
M  V30 11 C -4.81362 1.05848 -1.70171 0
M  V30 12 S -5.32639 2.68309 -1.70233 0
M  V30 13 C -5.02288 3.06692 -0.0715436 0
M  V30 14 C -4.52164 1.89973 0.438882 0
M  V30 15 C -1.50105 0.0143879 -0.231093 0
M  V30 16 N -1.57202 1.39494 -0.697536 0
M  V30 17 C -0.257757 -0.524897 -0.0902035 0
M  V30 18 S -0.555206 -2.10395 0.450384 0
M  V30 19 C 1.07987 0.0626248 -0.330983 0
M  V30 20 O 1.15368 1.23747 -0.730179 0
M  V30 21 N 2.22212 -0.712422 -0.104765 0
M  V30 22 C 3.56996 -0.357816 -0.271449 0
M  V30 23 C 4.01722 0.752002 -0.9435 0
M  V30 24 C 5.36476 1.07454 -1.06338 0
M  V30 25 C 6.30519 0.26293 -0.49383 0
M  V30 26 C 5.90394 -0.855904 0.185854 0
M  V30 27 C 4.58035 -1.15272 0.291355 0
M  V30 28 O 7.66061 0.565745 -0.600118 0
M  V30 29 C 8.32897 1.36967 0.358426 0
M  V30 30 F 7.7014 2.62289 0.373491 0
M  V30 31 F 8.31656 0.818575 1.60815 0
M  V30 32 F 9.62598 1.55789 -0.0360356 0
M  V30 33 H -6.38493 -3.70408 0.518657 0
M  V30 34 H -5.45004 -4.18044 1.95758 0
M  V30 35 H -4.8055 0.338382 -2.54104 0
M  V30 36 H -5.18797 4.02455 0.454926 0
M  V30 37 H -4.23441 1.88504 1.52162 0
M  V30 38 H -1.73155 1.49199 -1.72186 0
M  V30 39 H -1.4672 2.20057 -0.073555 0
M  V30 40 H 2.05423 -1.71108 0.237906 0
M  V30 41 H 3.32625 1.42305 -1.42171 0
M  V30 42 H 5.65944 1.98123 -1.61639 0
M  V30 43 H 6.63236 -1.50789 0.640965 0
M  V30 44 H 4.27488 -2.05341 0.841522 0
M  V30 END ATOM
M  V30 BEGIN BOND
M  V30 1 3 1 2
M  V30 2 1 2 3
M  V30 3 2 3 4
M  V30 4 1 4 5
M  V30 5 1 4 6
M  V30 6 2 6 7
M  V30 7 1 7 8
M  V30 8 2 8 9
M  V30 9 1 9 10
M  V30 10 2 10 11
M  V30 11 1 11 12
M  V30 12 1 12 13
M  V30 13 2 13 14
M  V30 14 1 8 15
M  V30 15 1 15 16
M  V30 16 2 15 17
M  V30 17 1 17 18
M  V30 18 1 17 19
M  V30 19 2 19 20
M  V30 20 1 19 21
M  V30 21 1 21 22
M  V30 22 2 22 23
M  V30 23 1 23 24
M  V30 24 2 24 25
M  V30 25 1 25 26
M  V30 26 2 26 27
M  V30 27 1 25 28
M  V30 28 1 28 29
M  V30 29 1 29 30
M  V30 30 1 29 31
M  V30 31 1 29 32
M  V30 32 1 9 3
M  V30 33 1 14 10
M  V30 34 1 27 22
M  V30 35 1 18 7
M  V30 36 1 5 33
M  V30 37 1 5 34
M  V30 38 1 11 35
M  V30 39 1 13 36
M  V30 40 1 14 37
M  V30 41 1 16 38
M  V30 42 1 16 39
M  V30 43 1 21 40
M  V30 44 1 23 41
M  V30 45 1 24 42
M  V30 46 1 26 43
M  V30 47 1 27 44
M  V30 END BOND
M  V30 END CTAB
M  END
