
     RDKit          3D

  0  0  0  0  0  0  0  0  0  0999 V3000
M  V30 BEGIN CTAB
M  V30 COUNTS 60 62 0 0 0
M  V30 BEGIN ATOM
M  V30 1 N -4.61963 -1.85967 -1.98571 0
M  V30 2 C -5.31986 -2.22116 -0.817162 0
M  V30 3 C -4.4793 -3.09988 0.0580378 0
M  V30 4 C -3.20153 -2.42924 0.49235 0
M  V30 5 C -3.51819 -1.18106 1.26792 0 CFG=1
M  V30 6 N -4.29603 -1.51374 2.43295 0
M  V30 7 C -2.21215 -0.5568 1.65179 0
M  V30 8 O -1.93974 -0.394343 2.87529 0
M  V30 9 N -1.2812 -0.147537 0.65939 0
M  V30 10 C -0.0207064 0.452883 0.957558 0 CFG=2
M  V30 11 C 0.0755987 1.87882 0.415025 0
M  V30 12 C -1.03867 2.65954 1.07965 0
M  V30 13 C -1.07756 4.06652 0.654517 0
M  V30 14 C -0.368343 5.01354 1.33749 0
M  V30 15 C -0.416176 6.33922 0.922289 0
M  V30 16 C -1.16946 6.69479 -0.164793 0
M  V30 17 C -1.88475 5.73847 -0.8533 0
M  V30 18 C -1.82768 4.42996 -0.430481 0
M  V30 19 C 1.13122 -0.37103 0.447766 0
M  V30 20 O 0.820417 -1.41418 -0.1369 0
M  V30 21 N 2.45291 0.0399972 0.636978 0
M  V30 22 C 3.64929 -0.585262 0.239224 0
M  V30 23 C 4.8769 0.0152464 0.529182 0
M  V30 24 N 6.05544 -0.521772 0.182378 0
M  V30 25 C 6.09471 -1.69416 -0.477344 0
M  V30 26 C 7.28885 -2.27795 -0.850991 0
M  V30 27 C 7.34884 -3.48636 -1.53172 0
M  V30 28 C 6.1642 -4.1338 -1.84967 0
M  V30 29 C 4.97077 -3.54519 -1.47334 0
M  V30 30 C 4.92586 -2.34472 -0.797652 0
M  V30 31 C 3.69601 -1.76374 -0.424193 0
M  V30 32 H -4.10819 -2.55279 -2.44719 0
M  V30 33 H -5.06676 -1.16152 -2.51554 0
M  V30 34 H -5.66139 -1.33792 -0.249776 0
M  V30 35 H -6.24258 -2.79724 -1.078 0
M  V30 36 H -5.03856 -3.35885 1.00433 0
M  V30 37 H -4.18798 -4.04447 -0.448382 0
M  V30 38 H -2.5784 -2.20159 -0.401101 0
M  V30 39 H -2.61203 -3.11098 1.122 0
M  V30 40 H -4.08382 -0.448075 0.67406 0
M  V30 41 H -5.27144 -1.70571 2.17669 0
M  V30 42 H -3.9062 -2.34171 2.94474 0
M  V30 43 H -1.54354 -0.29909 -0.345981 0
M  V30 44 H 0.0822084 0.532565 2.0588 0
M  V30 45 H 0.0116727 1.91103 -0.683555 0
M  V30 46 H 1.03383 2.30953 0.756664 0
M  V30 47 H -2.0007 2.15378 0.782895 0
M  V30 48 H -0.891872 2.64419 2.17507 0
M  V30 49 H 0.239052 4.79735 2.19532 0
M  V30 50 H 0.135834 7.08831 1.45068 0
M  V30 51 H -1.23688 7.71228 -0.523931 0
M  V30 52 H -2.49377 5.96926 -1.71714 0
M  V30 53 H -2.40099 3.68368 -0.987701 0
M  V30 54 H 2.52881 0.987871 1.1755 0
M  V30 55 H 4.85031 0.963425 1.06252 0
M  V30 56 H 8.21546 -1.78358 -0.60905 0
M  V30 57 H 8.28165 -3.95008 -1.82791 0
M  V30 58 H 6.2103 -5.07567 -2.38022 0
M  V30 59 H 4.03608 -4.04481 -1.71792 0
M  V30 60 H 2.81986 -2.32655 -0.70611 0
M  V30 END ATOM
M  V30 BEGIN BOND
M  V30 1 1 1 2
M  V30 2 1 2 3
M  V30 3 1 3 4
M  V30 4 1 4 5
M  V30 5 1 5 6
M  V30 6 1 5 7
M  V30 7 2 7 8
M  V30 8 1 7 9
M  V30 9 1 9 10
M  V30 10 1 10 11
M  V30 11 1 11 12
M  V30 12 1 12 13
M  V30 13 2 13 14
M  V30 14 1 14 15
M  V30 15 2 15 16
M  V30 16 1 16 17
M  V30 17 2 17 18
M  V30 18 1 10 19
M  V30 19 2 19 20
M  V30 20 1 19 21
M  V30 21 1 21 22
M  V30 22 2 22 23
M  V30 23 1 23 24
M  V30 24 2 24 25
M  V30 25 1 25 26
M  V30 26 2 26 27
M  V30 27 1 27 28
M  V30 28 2 28 29
M  V30 29 1 29 30
M  V30 30 2 30 31
M  V30 31 1 18 13
M  V30 32 1 31 22
M  V30 33 1 30 25
M  V30 34 1 1 32
M  V30 35 1 1 33
M  V30 36 1 2 34
M  V30 37 1 2 35
M  V30 38 1 3 36
M  V30 39 1 3 37
M  V30 40 1 4 38
M  V30 41 1 4 39
M  V30 42 1 5 40 CFG=3
M  V30 43 1 6 41
M  V30 44 1 6 42
M  V30 45 1 9 43
M  V30 46 1 10 44 CFG=1
M  V30 47 1 11 45
M  V30 48 1 11 46
M  V30 49 1 12 47
M  V30 50 1 12 48
M  V30 51 1 14 49
M  V30 52 1 15 50
M  V30 53 1 16 51
M  V30 54 1 17 52
M  V30 55 1 18 53
M  V30 56 1 21 54
M  V30 57 1 23 55
M  V30 58 1 26 56
M  V30 59 1 27 57
M  V30 60 1 28 58
M  V30 61 1 29 59
M  V30 62 1 31 60
M  V30 END BOND
M  V30 END CTAB
M  END
