
     RDKit          3D

  0  0  0  0  0  0  0  0  0  0999 V3000
M  V30 BEGIN CTAB
M  V30 COUNTS 27 27 0 0 0
M  V30 BEGIN ATOM
M  V30 1 C -1.67333 1.68385 -1.01868 0
M  V30 2 C -1.75643 0.400618 -0.240554 0
M  V30 3 C -0.639337 -0.528228 -0.397877 0
M  V30 4 C 0.701259 -0.155756 -0.0518941 0
M  V30 5 C 1.16782 1.03443 0.458685 0
M  V30 6 C 2.49647 1.24622 0.743963 0
M  V30 7 Cl 2.94966 2.80771 1.38902 0
M  V30 8 C 3.41012 0.242501 0.517391 0
M  V30 9 N 2.96316 -0.916589 0.0213083 0
M  V30 10 C 1.67469 -1.14457 -0.263652 0
M  V30 11 N 1.3442 -2.42435 -0.786087 0
M  V30 12 N -0.975743 -1.74395 0.363964 0
M  V30 13 C -2.16772 0.612452 1.20714 0
M  V30 14 H -2.51974 1.8767 -1.69132 0
M  V30 15 H -1.69748 2.52284 -0.261858 0
M  V30 16 H -0.750685 1.80774 -1.58895 0
M  V30 17 H -2.66053 -0.129169 -0.688232 0
M  V30 18 H -0.636656 -0.880301 -1.47428 0
M  V30 19 H 0.412152 1.79668 0.621192 0
M  V30 20 H 4.4509 0.428995 0.74842 0
M  V30 21 H 1.11512 -2.621 -1.76802 0
M  V30 22 H 1.33951 -3.22314 -0.0926436 0
M  V30 23 H -1.25985 -2.52923 -0.219324 0
M  V30 24 H -0.328265 -1.92444 1.12982 0
M  V30 25 H -3.00282 1.3316 1.27423 0
M  V30 26 H -1.34808 0.803738 1.89166 0
M  V30 27 H -2.60841 -0.375363 1.53817 0
M  V30 END ATOM
M  V30 BEGIN BOND
M  V30 1 1 1 2
M  V30 2 1 2 3
M  V30 3 1 3 4
M  V30 4 2 4 5
M  V30 5 1 5 6
M  V30 6 1 6 7
M  V30 7 2 6 8
M  V30 8 1 8 9
M  V30 9 2 9 10
M  V30 10 1 10 11
M  V30 11 1 3 12
M  V30 12 1 2 13
M  V30 13 1 10 4
M  V30 14 1 1 14
M  V30 15 1 1 15
M  V30 16 1 1 16
M  V30 17 1 2 17
M  V30 18 1 3 18
M  V30 19 1 5 19
M  V30 20 1 8 20
M  V30 21 1 11 21
M  V30 22 1 11 22
M  V30 23 1 12 23
M  V30 24 1 12 24
M  V30 25 1 13 25
M  V30 26 1 13 26
M  V30 27 1 13 27
M  V30 END BOND
M  V30 END CTAB
M  END
