
     RDKit          3D

  0  0  0  0  0  0  0  0  0  0999 V3000
M  V30 BEGIN CTAB
M  V30 COUNTS 25 25 0 0 0
M  V30 BEGIN ATOM
M  V30 1 Br -4.04684 2.77278 0.662937 0
M  V30 2 C -2.25523 2.04699 0.614562 0
M  V30 3 C -2.28101 0.712803 -0.0530701 0
M  V30 4 O -3.33868 0.209614 -0.487612 0
M  V30 5 C -1.00995 -0.0190255 -0.195162 0
M  V30 6 C 0.173997 0.517382 0.278013 0
M  V30 7 C 1.38454 -0.118214 0.173239 0
M  V30 8 O 2.58141 0.36737 0.623403 0
M  V30 9 C 2.59291 1.63421 1.25515 0
M  V30 10 C 1.37625 -1.36433 -0.447636 0
M  V30 11 C 0.201319 -1.9097 -0.923701 0
M  V30 12 C -1.00543 -1.25439 -0.808461 0
M  V30 13 N -2.22333 -1.81194 -1.2981 0
M  V30 14 N 2.56635 -2.08126 -0.596425 0
M  V30 15 H -1.55606 2.71406 0.0769244 0
M  V30 16 H -1.92826 1.94546 1.68217 0
M  V30 17 H 0.15613 1.487 0.756881 0
M  V30 18 H 3.63724 1.86136 1.52526 0
M  V30 19 H 2.00766 1.5025 2.20529 0
M  V30 20 H 2.13479 2.41625 0.626771 0
M  V30 21 H 0.168883 -2.88488 -1.41411 0
M  V30 22 H -2.90907 -2.21428 -0.638719 0
M  V30 23 H -2.46029 -1.83191 -2.32957 0
M  V30 24 H 2.80066 -2.5602 -1.48869 0
M  V30 25 H 3.232 -2.13766 0.20066 0
M  V30 END ATOM
M  V30 BEGIN BOND
M  V30 1 1 1 2
M  V30 2 1 2 3
M  V30 3 2 3 4
M  V30 4 1 3 5
M  V30 5 2 5 6
M  V30 6 1 6 7
M  V30 7 1 7 8
M  V30 8 1 8 9
M  V30 9 2 7 10
M  V30 10 1 10 11
M  V30 11 2 11 12
M  V30 12 1 12 13
M  V30 13 1 10 14
M  V30 14 1 12 5
M  V30 15 1 2 15
M  V30 16 1 2 16
M  V30 17 1 6 17
M  V30 18 1 9 18
M  V30 19 1 9 19
M  V30 20 1 9 20
M  V30 21 1 11 21
M  V30 22 1 13 22
M  V30 23 1 13 23
M  V30 24 1 14 24
M  V30 25 1 14 25
M  V30 END BOND
M  V30 END CTAB
M  END
