
     RDKit          3D

  0  0  0  0  0  0  0  0  0  0999 V3000
M  V30 BEGIN CTAB
M  V30 COUNTS 41 43 0 0 0
M  V30 BEGIN ATOM
M  V30 1 C -4.34023 1.10463 0.332392 0 CFG=1
M  V30 2 S -2.88668 2.03515 0.824989 0
M  V30 3 C -1.56292 0.801712 0.942145 0
M  V30 4 C -1.61316 -0.142772 -0.261942 0
M  V30 5 C -0.350429 -0.372522 -0.975 0
M  V30 6 S 0.862037 -1.25757 0.0445326 0
M  V30 7 C 2.33253 -1.46246 -0.944619 0
M  V30 8 N 2.69369 -2.44869 -1.78164 0
M  V30 9 N 3.87759 -2.19013 -2.30901 0
M  V30 10 N 4.27542 -1.0357 -1.80852 0
M  V30 11 N 3.35931 -0.573571 -0.980047 0
M  V30 12 C 3.41035 0.64902 -0.247245 0
M  V30 13 C 4.0028 0.557921 1.11681 0
M  V30 14 S 5.68319 -0.0102427 1.13591 0
M  V30 15 N 6.7041 1.04601 0.215589 0
M  V30 16 O 5.80926 -1.43317 0.715234 0
M  V30 17 O 6.1511 0.0326396 2.58532 0
M  V30 18 C -2.77816 -0.620312 -0.599757 0
M  V30 19 N -3.98352 -0.258878 0.131966 0
M  V30 20 C -5.1519 -0.621877 0.841837 0
M  V30 21 O -5.82634 -1.67391 0.903884 0
M  V30 22 C -5.24769 0.705782 1.45963 0
M  V30 23 N -6.52831 1.3734 1.34767 0
M  V30 24 C -2.90709 -1.61998 -1.66758 0
M  V30 25 O -1.87499 -2.1588 -2.39438 0
M  V30 26 O -4.07232 -2.07461 -1.99911 0
M  V30 27 H -4.86678 1.60298 -0.487177 0
M  V30 28 H -0.609537 1.35781 0.938921 0
M  V30 29 H -1.60851 0.214371 1.86946 0
M  V30 30 H -0.386777 -0.766251 -1.94681 0
M  V30 31 H 0.136068 0.676194 -1.10781 0
M  V30 32 H 2.36787 1.05425 -0.114706 0
M  V30 33 H 3.91628 1.4384 -0.877059 0
M  V30 34 H 3.37957 -0.199095 1.67807 0
M  V30 35 H 3.88507 1.50391 1.68785 0
M  V30 36 H 7.02001 1.81105 0.844942 0
M  V30 37 H 6.15403 1.43232 -0.569761 0
M  V30 38 H -4.77561 0.79855 2.46351 0
M  V30 39 H -6.39387 2.36655 1.64835 0
M  V30 40 H -6.81371 1.41022 0.351427 0
M  V30 41 H -1.44174 -3.05232 -2.20611 0
M  V30 END ATOM
M  V30 BEGIN BOND
M  V30 1 1 1 2
M  V30 2 1 2 3
M  V30 3 1 3 4
M  V30 4 1 4 5
M  V30 5 1 5 6
M  V30 6 1 6 7
M  V30 7 2 7 8
M  V30 8 1 8 9
M  V30 9 2 9 10
M  V30 10 1 10 11
M  V30 11 1 11 12
M  V30 12 1 12 13
M  V30 13 1 13 14
M  V30 14 1 14 15
M  V30 15 2 14 16
M  V30 16 2 14 17
M  V30 17 2 4 18
M  V30 18 1 18 19
M  V30 19 1 19 20
M  V30 20 2 20 21
M  V30 21 1 20 22
M  V30 22 1 22 23
M  V30 23 1 18 24
M  V30 24 1 24 25
M  V30 25 2 24 26
M  V30 26 1 19 1
M  V30 27 1 22 1
M  V30 28 1 11 7
M  V30 29 1 1 27 CFG=3
M  V30 30 1 3 28
M  V30 31 1 3 29
M  V30 32 1 5 30
M  V30 33 1 5 31
M  V30 34 1 12 32
M  V30 35 1 12 33
M  V30 36 1 13 34
M  V30 37 1 13 35
M  V30 38 1 15 36
M  V30 39 1 15 37
M  V30 40 1 22 38
M  V30 41 1 23 39
M  V30 42 1 23 40
M  V30 43 1 25 41
M  V30 END BOND
M  V30 END CTAB
M  END
