
     RDKit          3D

  0  0  0  0  0  0  0  0  0  0999 V3000
M  V30 BEGIN CTAB
M  V30 COUNTS 81 83 0 0 0
M  V30 BEGIN ATOM
M  V30 1 C -6.20534 0.406365 -1.50878 0
M  V30 2 N -4.99393 -0.109239 -0.924656 0
M  V30 3 C -4.41808 0.792905 0.0411299 0 CFG=1
M  V30 4 C -5.35139 1.00293 1.17553 0 CFG=2
M  V30 5 O -5.23802 2.28346 1.71857 0
M  V30 6 C -5.28301 -0.0747526 2.18811 0 CFG=1
M  V30 7 O -5.92151 -1.21954 1.66829 0
M  V30 8 C -3.85339 -0.451474 2.46166 0 CFG=2
M  V30 9 C -3.16803 0.541863 3.37193 0
M  V30 10 O -1.94222 0.060774 3.82534 0
M  V30 11 O -3.14577 -0.773059 1.33377 0
M  V30 12 C -3.06607 0.297532 0.433523 0 CFG=1
M  V30 13 O -2.42048 -0.160227 -0.701989 0
M  V30 14 C -1.18861 0.436236 -0.947091 0 CFG=1
M  V30 15 C -0.199694 -0.75214 -0.964978 0 CFG=2
M  V30 16 O 1.05234 -0.359482 -1.27866 0
M  V30 17 C 2.07476 -0.656028 -0.392779 0 CFG=1
M  V30 18 C 3.04488 -1.66818 -0.958208 0 CFG=2
M  V30 19 O 2.50162 -2.95243 -0.95005 0
M  V30 20 C 4.24908 -1.66641 -0.0441928 0 CFG=1
M  V30 21 O 5.01505 -2.82124 -0.205207 0
M  V30 22 C 5.03528 -0.423389 -0.384335 0 CFG=2
M  V30 23 N 6.22204 -0.248541 0.396131 0
M  V30 24 C 7.25042 -1.21485 0.325329 0
M  V30 25 N 7.78903 -1.71522 1.5362 0
M  V30 26 N 7.7257 -1.6627 -0.781763 0
M  V30 27 C 4.15804 0.784013 -0.416414 0 CFG=1
M  V30 28 O 4.14801 1.41448 -1.66221 0
M  V30 29 C 2.77961 0.544341 0.126275 0 CFG=2
M  V30 30 N 2.86128 0.618334 1.57874 0
M  V30 31 C 1.73517 0.661406 2.42654 0
M  V30 32 N 0.822492 1.73536 2.38584 0
M  V30 33 N 1.53558 -0.297798 3.25531 0
M  V30 34 O -0.758997 -1.42152 -2.09276 0
M  V30 35 C -0.683154 -0.409277 -3.07318 0 CFG=1
M  V30 36 C -1.57699 -0.76862 -4.25028 0
M  V30 37 C -1.1365 0.852399 -2.38942 0 CFG=1
M  V30 38 O -2.40641 1.24659 -2.82006 0
M  V30 39 C -0.169717 1.97984 -2.66378 0
M  V30 40 O -0.545635 3.13533 -1.98148 0
M  V30 41 H -6.23376 1.50041 -1.23905 0
M  V30 42 H -7.10421 -0.0636395 -1.09307 0
M  V30 43 H -6.21211 0.367539 -2.62025 0
M  V30 44 H -5.1334 -1.06944 -0.610926 0
M  V30 45 H -4.2445 1.78087 -0.49052 0
M  V30 46 H -6.39658 0.97353 0.742795 0
M  V30 47 H -5.42677 2.19713 2.69317 0
M  V30 48 H -5.7757 0.215036 3.15684 0
M  V30 49 H -5.6533 -2.02684 2.20386 0
M  V30 50 H -3.91067 -1.40365 3.06906 0
M  V30 51 H -3.06935 1.54633 2.92357 0
M  V30 52 H -3.82524 0.609418 4.28818 0
M  V30 53 H -2.04472 -0.696323 4.45229 0
M  V30 54 H -2.50101 1.10176 0.955083 0
M  V30 55 H -0.885427 1.18637 -0.224971 0
M  V30 56 H -0.358927 -1.28419 -0.03456 0
M  V30 57 H 1.59687 -1.17855 0.46373 0
M  V30 58 H 3.40371 -1.42199 -1.96737 0
M  V30 59 H 2.00026 -3.11272 -0.131638 0
M  V30 60 H 3.94913 -1.61911 1.01338 0
M  V30 61 H 4.81149 -3.46965 0.534369 0
M  V30 62 H 5.38715 -0.58605 -1.44721 0
M  V30 63 H 6.33225 0.582155 1.01413 0
M  V30 64 H 8.83755 -1.87183 1.55284 0
M  V30 65 H 7.25576 -1.9373 2.39354 0
M  V30 66 H 7.41462 -1.37165 -1.72424 0
M  V30 67 H 4.63873 1.53691 0.278588 0
M  V30 68 H 4.9352 1.16038 -2.21358 0
M  V30 69 H 2.16935 1.43527 -0.184716 0
M  V30 70 H 3.80051 0.643751 2.07891 0
M  V30 71 H 0.664171 2.28403 1.52213 0
M  V30 72 H 0.29848 1.97766 3.24731 0
M  V30 73 H 2.11629 -1.13136 3.38738 0
M  V30 74 H 0.371403 -0.353577 -3.40998 0
M  V30 75 H -2.56721 -0.34071 -4.07272 0
M  V30 76 H -1.16774 -0.38372 -5.20051 0
M  V30 77 H -1.59187 -1.89367 -4.29595 0
M  V30 78 H -2.6005 2.15963 -2.51011 0
M  V30 79 H -0.307307 2.2411 -3.75464 0
M  V30 80 H 0.876547 1.69866 -2.53681 0
M  V30 81 H -0.176587 3.05 -1.06425 0
M  V30 END ATOM
M  V30 BEGIN BOND
M  V30 1 1 1 2
M  V30 2 1 2 3
M  V30 3 1 3 4
M  V30 4 1 4 5
M  V30 5 1 4 6
M  V30 6 1 6 7
M  V30 7 1 6 8
M  V30 8 1 8 9
M  V30 9 1 9 10
M  V30 10 1 8 11
M  V30 11 1 11 12
M  V30 12 1 12 13
M  V30 13 1 13 14
M  V30 14 1 14 15
M  V30 15 1 15 16
M  V30 16 1 16 17
M  V30 17 1 17 18
M  V30 18 1 18 19
M  V30 19 1 18 20
M  V30 20 1 20 21
M  V30 21 1 20 22
M  V30 22 1 22 23
M  V30 23 1 23 24
M  V30 24 1 24 25
M  V30 25 2 24 26 CFG=2
M  V30 26 1 22 27
M  V30 27 1 27 28
M  V30 28 1 27 29
M  V30 29 1 29 30
M  V30 30 1 30 31
M  V30 31 1 31 32
M  V30 32 2 31 33 CFG=2
M  V30 33 1 15 34
M  V30 34 1 34 35
M  V30 35 1 35 36
M  V30 36 1 35 37
M  V30 37 1 37 38 CFG=3
M  V30 38 1 37 39
M  V30 39 1 39 40
M  V30 40 1 12 3
M  V30 41 1 37 14
M  V30 42 1 29 17
M  V30 43 1 1 41
M  V30 44 1 1 42
M  V30 45 1 1 43
M  V30 46 1 2 44
M  V30 47 1 3 45 CFG=3
M  V30 48 1 4 46 CFG=3
M  V30 49 1 5 47
M  V30 50 1 6 48 CFG=1
M  V30 51 1 7 49
M  V30 52 1 8 50 CFG=1
M  V30 53 1 9 51
M  V30 54 1 9 52
M  V30 55 1 10 53
M  V30 56 1 12 54 CFG=1
M  V30 57 1 14 55 CFG=1
M  V30 58 1 15 56 CFG=1
M  V30 59 1 17 57 CFG=1
M  V30 60 1 18 58 CFG=3
M  V30 61 1 19 59
M  V30 62 1 20 60 CFG=1
M  V30 63 1 21 61
M  V30 64 1 22 62 CFG=3
M  V30 65 1 23 63
M  V30 66 1 25 64
M  V30 67 1 25 65
M  V30 68 1 26 66
M  V30 69 1 27 67 CFG=1
M  V30 70 1 28 68
M  V30 71 1 29 69 CFG=3
M  V30 72 1 30 70
M  V30 73 1 32 71
M  V30 74 1 32 72
M  V30 75 1 33 73
M  V30 76 1 35 74 CFG=3
M  V30 77 1 36 75
M  V30 78 1 36 76
M  V30 79 1 36 77
M  V30 80 1 38 78
M  V30 81 1 39 79
M  V30 82 1 39 80
M  V30 83 1 40 81
M  V30 END BOND
M  V30 END CTAB
M  END
