
     RDKit          3D

  0  0  0  0  0  0  0  0  0  0999 V3000
M  V30 BEGIN CTAB
M  V30 COUNTS 49 51 0 0 0
M  V30 BEGIN ATOM
M  V30 1 O -4.40405 0.292069 -3.7207 0 CHG=-1
M  V30 2 N -3.1158 -0.119425 -3.516 0 CHG=1
M  V30 3 O -2.60113 -0.948182 -4.29556 0
M  V30 4 C -2.38841 0.395018 -2.42327 0
M  V30 5 C -1.42364 1.35555 -2.68181 0
M  V30 6 N -1.14798 1.81165 -3.99044 0
M  V30 7 N -0.716968 1.86898 -1.64962 0
M  V30 8 C -0.91496 1.48201 -0.385012 0
M  V30 9 N -1.86903 0.538437 -0.168429 0
M  V30 10 C -2.61772 -0.0300624 -1.09985 0
M  V30 11 N -3.59154 -1.00781 -0.898822 0
M  V30 12 C -3.95718 -1.5174 0.365687 0
M  V30 13 C -4.56903 -2.78274 0.41498 0
M  V30 14 C -4.94936 -3.28892 1.6178 0
M  V30 15 C -4.76641 -2.6245 2.80527 0
M  V30 16 C -4.1729 -1.39892 2.74671 0
M  V30 17 C -3.77038 -0.843475 1.54963 0
M  V30 18 N -0.183015 2.02922 0.691535 0
M  V30 19 C 0.817636 3.04258 0.570179 0
M  V30 20 C 1.99652 2.67556 -0.253933 0
M  V30 21 C 2.7664 1.50755 0.186751 0
M  V30 22 C 3.75975 1.66202 1.16382 0
M  V30 23 C 4.52481 0.58666 1.56735 0
M  V30 24 C 4.31976 -0.674233 1.00551 0
M  V30 25 C 3.34371 -0.804739 0.0529562 0
M  V30 26 C 2.56428 0.261888 -0.36609 0
M  V30 27 S 5.34362 -1.98176 1.55329 0
M  V30 28 O 4.65955 -3.30231 1.28139 0
M  V30 29 O 5.60731 -1.79671 3.00402 0
M  V30 30 N 6.80367 -1.87077 0.593525 0
M  V30 31 H -0.201332 1.68714 -4.38142 0
M  V30 32 H -1.88961 2.26624 -4.55031 0
M  V30 33 H -4.11768 -1.41526 -1.73709 0
M  V30 34 H -4.70756 -3.30381 -0.526645 0
M  V30 35 H -5.42483 -4.26654 1.661 0
M  V30 36 H -5.07796 -3.04261 3.77341 0
M  V30 37 H -4.00873 -0.842429 3.66897 0
M  V30 38 H -3.32932 0.138715 1.6256 0
M  V30 39 H -0.411727 1.63975 1.65938 0
M  V30 40 H 1.09994 3.47403 1.56425 0
M  V30 41 H 0.292801 3.91824 0.0706452 0
M  V30 42 H 1.69649 2.5467 -1.32641 0
M  V30 43 H 2.71784 3.55371 -0.278365 0
M  V30 44 H 3.94321 2.63866 1.62122 0
M  V30 45 H 5.29358 0.719345 2.32943 0
M  V30 46 H 3.17683 -1.78031 -0.389383 0
M  V30 47 H 1.80341 0.140852 -1.123 0
M  V30 48 H 6.49404 -1.57738 -0.361535 0
M  V30 49 H 7.30312 -1.01231 0.979385 0
M  V30 END ATOM
M  V30 BEGIN BOND
M  V30 1 1 1 2
M  V30 2 2 2 3
M  V30 3 1 2 4
M  V30 4 2 4 5
M  V30 5 1 5 6
M  V30 6 1 5 7
M  V30 7 2 7 8
M  V30 8 1 8 9
M  V30 9 2 9 10
M  V30 10 1 10 11
M  V30 11 1 11 12
M  V30 12 2 12 13
M  V30 13 1 13 14
M  V30 14 2 14 15
M  V30 15 1 15 16
M  V30 16 2 16 17
M  V30 17 1 8 18
M  V30 18 1 18 19
M  V30 19 1 19 20
M  V30 20 1 20 21
M  V30 21 2 21 22
M  V30 22 1 22 23
M  V30 23 2 23 24
M  V30 24 1 24 25
M  V30 25 2 25 26
M  V30 26 1 24 27
M  V30 27 2 27 28
M  V30 28 2 27 29
M  V30 29 1 27 30
M  V30 30 1 10 4
M  V30 31 1 17 12
M  V30 32 1 26 21
M  V30 33 1 6 31
M  V30 34 1 6 32
M  V30 35 1 11 33
M  V30 36 1 13 34
M  V30 37 1 14 35
M  V30 38 1 15 36
M  V30 39 1 16 37
M  V30 40 1 17 38
M  V30 41 1 18 39
M  V30 42 1 19 40
M  V30 43 1 19 41
M  V30 44 1 20 42
M  V30 45 1 20 43
M  V30 46 1 22 44
M  V30 47 1 23 45
M  V30 48 1 25 46
M  V30 49 1 26 47
M  V30 50 1 30 48
M  V30 51 1 30 49
M  V30 END BOND
M  V30 END CTAB
M  END
