
     RDKit          3D

  0  0  0  0  0  0  0  0  0  0999 V3000
M  V30 BEGIN CTAB
M  V30 COUNTS 34 35 0 0 0
M  V30 BEGIN ATOM
M  V30 1 N -5.09089 1.84131 0.0804379 0
M  V30 2 C -4.20548 0.745541 -0.0324407 0
M  V30 3 N -4.68737 -0.454004 -0.369823 0
M  V30 4 C -3.88796 -1.51634 -0.487878 0
M  V30 5 C -2.52041 -1.35646 -0.250795 0
M  V30 6 C -1.99088 -0.13297 0.0989223 0
M  V30 7 C -2.85414 0.926279 0.206877 0
M  V30 8 C -0.549657 0.021674 0.345725 0 CFG=1
M  V30 9 O -0.0658921 -1.00341 1.1303 0
M  V30 10 C 1.28303 -0.807743 1.39759 0
M  V30 11 C 2.12819 -1.4285 0.32081 0
M  V30 12 N 2.49343 -0.488448 -0.694922 0
M  V30 13 C 1.53489 0.546995 -0.92378 0
M  V30 14 C 0.151047 -0.00609329 -1.01286 0
M  V30 15 S 4.09487 0.0747203 -0.581634 0
M  V30 16 O 4.34644 1.00455 -1.74588 0
M  V30 17 O 5.04332 -1.07929 -0.6792 0
M  V30 18 N 4.41276 0.911146 0.885294 0
M  V30 19 H -6.04779 1.67736 0.429774 0
M  V30 20 H -4.78283 2.79758 -0.18438 0
M  V30 21 H -4.24676 -2.4844 -0.755729 0
M  V30 22 H -1.85119 -2.216 -0.34299 0
M  V30 23 H -2.49769 1.91044 0.477945 0
M  V30 24 H -0.326714 0.989285 0.838851 0
M  V30 25 H 1.54602 -1.29381 2.36299 0
M  V30 26 H 1.5083 0.270543 1.51551 0
M  V30 27 H 1.61428 -2.32659 -0.125942 0
M  V30 28 H 3.07928 -1.82756 0.778287 0
M  V30 29 H 1.56621 1.37546 -0.198715 0
M  V30 30 H 1.78296 1.00527 -1.92357 0
M  V30 31 H 0.165567 -1.04063 -1.39962 0
M  V30 32 H -0.445924 0.646455 -1.69458 0
M  V30 33 H 3.8943 1.78815 0.986148 0
M  V30 34 H 5.40668 0.929487 1.13867 0
M  V30 END ATOM
M  V30 BEGIN BOND
M  V30 1 1 1 2
M  V30 2 2 2 3
M  V30 3 1 3 4
M  V30 4 2 4 5
M  V30 5 1 5 6
M  V30 6 2 6 7
M  V30 7 1 6 8
M  V30 8 1 8 9
M  V30 9 1 9 10
M  V30 10 1 10 11
M  V30 11 1 11 12
M  V30 12 1 12 13
M  V30 13 1 13 14
M  V30 14 1 12 15
M  V30 15 2 15 16
M  V30 16 2 15 17
M  V30 17 1 15 18
M  V30 18 1 7 2
M  V30 19 1 14 8
M  V30 20 1 1 19
M  V30 21 1 1 20
M  V30 22 1 4 21
M  V30 23 1 5 22
M  V30 24 1 7 23
M  V30 25 1 8 24 CFG=1
M  V30 26 1 10 25
M  V30 27 1 10 26
M  V30 28 1 11 27
M  V30 29 1 11 28
M  V30 30 1 13 29
M  V30 31 1 13 30
M  V30 32 1 14 31
M  V30 33 1 14 32
M  V30 34 1 18 33
M  V30 35 1 18 34
M  V30 END BOND
M  V30 END CTAB
M  END
