
     RDKit          3D

  0  0  0  0  0  0  0  0  0  0999 V3000
M  V30 BEGIN CTAB
M  V30 COUNTS 33 33 0 0 0
M  V30 BEGIN ATOM
M  V30 1 O 3.91965 -1.08619 -0.0737691 0
M  V30 2 C 3.84384 0.286425 0.0879546 0
M  V30 3 C 2.5184 0.883244 -0.214469 0
M  V30 4 N 1.41413 0.438252 0.562242 0
M  V30 5 C 0.971377 -0.897504 0.37658 0
M  V30 6 C 0.438133 -1.17926 -1.00682 0
M  V30 7 C -0.974639 -0.686716 -1.15901 0
M  V30 8 N -1.52222 -0.0819433 0.0241191 0
M  V30 9 C -0.980379 0.908375 0.893592 0
M  V30 10 C 0.350565 1.41988 0.422859 0
M  V30 11 C -2.82188 -0.562867 0.374198 0
M  V30 12 N -3.9013 0.0849098 0.226478 0
M  V30 13 N -4.03984 1.35808 -0.291246 0
M  V30 14 N -2.85624 -1.88023 0.929009 0
M  V30 15 H 4.74467 -1.40447 0.38107 0
M  V30 16 H 4.23589 0.617774 1.07744 0
M  V30 17 H 4.57093 0.730517 -0.652492 0
M  V30 18 H 2.61539 1.99263 -0.0182821 0
M  V30 19 H 2.33926 0.826551 -1.31741 0
M  V30 20 H 0.0720159 -1.02675 1.05694 0
M  V30 21 H 1.70885 -1.60205 0.747304 0
M  V30 22 H 1.09606 -0.756292 -1.79833 0
M  V30 23 H 0.451069 -2.27893 -1.15592 0
M  V30 24 H -1.65441 -1.47941 -1.56828 0
M  V30 25 H -0.980076 0.11282 -1.9535 0
M  V30 26 H -1.66789 1.79942 0.914619 0
M  V30 27 H -0.917123 0.579579 1.95418 0
M  V30 28 H 0.663802 2.32559 0.956132 0
M  V30 29 H 0.282135 1.61984 -0.683195 0
M  V30 30 H -4.16547 1.55183 -1.32699 0
M  V30 31 H -4.02048 2.16556 0.376942 0
M  V30 32 H -3.54773 -2.15126 1.65539 0
M  V30 33 H -2.18648 -2.6274 0.628385 0
M  V30 END ATOM
M  V30 BEGIN BOND
M  V30 1 1 1 2
M  V30 2 1 2 3
M  V30 3 1 3 4
M  V30 4 1 4 5
M  V30 5 1 5 6
M  V30 6 1 6 7
M  V30 7 1 7 8
M  V30 8 1 8 9
M  V30 9 1 9 10
M  V30 10 1 8 11
M  V30 11 2 11 12 CFG=2
M  V30 12 1 12 13
M  V30 13 1 11 14
M  V30 14 1 10 4
M  V30 15 1 1 15
M  V30 16 1 2 16
M  V30 17 1 2 17
M  V30 18 1 3 18
M  V30 19 1 3 19
M  V30 20 1 5 20
M  V30 21 1 5 21
M  V30 22 1 6 22
M  V30 23 1 6 23
M  V30 24 1 7 24
M  V30 25 1 7 25
M  V30 26 1 9 26
M  V30 27 1 9 27
M  V30 28 1 10 28
M  V30 29 1 10 29
M  V30 30 1 13 30
M  V30 31 1 13 31
M  V30 32 1 14 32
M  V30 33 1 14 33
M  V30 END BOND
M  V30 END CTAB
M  END
