
     RDKit          3D

  0  0  0  0  0  0  0  0  0  0999 V3000
M  V30 BEGIN CTAB
M  V30 COUNTS 89 88 0 0 0
M  V30 BEGIN ATOM
M  V30 1 C -0.902445 1.04555 -0.345236 0 CFG=2
M  V30 2 N -2.08994 1.75626 0.0784158 0
M  V30 3 C -1.07966 -0.439539 -0.309312 0
M  V30 4 C -1.41966 -1.06352 0.985524 0
M  V30 5 C -2.72376 -0.680129 1.59839 0
M  V30 6 C -3.90883 -1.05756 0.733411 0
M  V30 7 N -5.14409 -0.611651 1.31434 0
M  V30 8 C -6.31405 -1.04136 0.557406 0
M  V30 9 C -6.3555 -0.384156 -0.771251 0
M  V30 10 C -7.51664 -0.687522 -1.64898 0 CFG=1
M  V30 11 C -7.71218 -2.16532 -1.93906 0
M  V30 12 C -8.75141 0.111896 -1.5373 0
M  V30 13 C -9.4573 0.131926 -0.228991 0
M  V30 14 C -10.704 0.978799 -0.317166 0
M  V30 15 C -11.8815 0.440974 -0.10776 0
M  V30 16 C -13.0843 1.30947 -0.205979 0
M  V30 17 C -12.0524 -0.992362 0.224038 0
M  V30 18 C 0.314505 1.52025 0.314293 0
M  V30 19 O 0.239922 2.14263 1.39048 0
M  V30 20 N 1.60318 1.30386 -0.228977 0
M  V30 21 C 2.821 1.75931 0.402251 0
M  V30 22 C 3.98742 1.41636 -0.473301 0
M  V30 23 C 5.30833 1.85106 0.118055 0
M  V30 24 N 5.63766 1.24368 1.36182 0
M  V30 25 C 5.95087 -0.16807 1.27398 0
M  V30 26 C 7.27158 -0.304069 0.529489 0
M  V30 27 C 8.34516 0.42256 1.29541 0
M  V30 28 C 9.64689 0.323248 0.534134 0
M  V30 29 N 9.98964 -1.06935 0.381267 0
M  V30 30 C 11.1819 -1.24976 -0.39564 0
M  V30 31 C 12.3773 -0.759811 0.361763 0
M  V30 32 C 13.6082 -0.982137 -0.536625 0
M  V30 33 N 13.3352 -0.188061 -1.74651 0
M  V30 34 H -0.799539 1.28954 -1.44887 0
M  V30 35 H -1.88732 2.70494 0.456589 0
M  V30 36 H -2.75954 1.75644 -0.71151 0
M  V30 37 H -0.191502 -0.951802 -0.727943 0
M  V30 38 H -1.91223 -0.669951 -1.02216 0
M  V30 39 H -0.641842 -0.948237 1.77086 0
M  V30 40 H -1.46212 -2.17815 0.805362 0
M  V30 41 H -2.84759 0.31645 1.97226 0
M  V30 42 H -2.83074 -1.35299 2.51152 0
M  V30 43 H -3.98981 -2.15863 0.606958 0
M  V30 44 H -3.81398 -0.637752 -0.280875 0
M  V30 45 H -5.2003 -0.873001 2.31667 0
M  V30 46 H -6.12131 -2.13865 0.358685 0
M  V30 47 H -7.18674 -0.909857 1.20271 0
M  V30 48 H -5.41363 -0.707975 -1.31971 0
M  V30 49 H -6.19209 0.717141 -0.641507 0
M  V30 50 H -7.12115 -0.340391 -2.73196 0
M  V30 51 H -6.7603 -2.54443 -2.36907 0
M  V30 52 H -8.01593 -2.71128 -1.0314 0
M  V30 53 H -8.46112 -2.2055 -2.76222 0
M  V30 54 H -9.44133 -0.197438 -2.37971 0
M  V30 55 H -8.46348 1.19157 -1.78783 0
M  V30 56 H -9.76077 -0.870641 0.0780867 0
M  V30 57 H -8.78376 0.575603 0.554493 0
M  V30 58 H -10.5767 2.01316 -0.550462 0
M  V30 59 H -13.1088 1.84679 -1.18048 0
M  V30 60 H -12.9948 2.05578 0.615124 0
M  V30 61 H -13.9956 0.695649 -0.0693914 0
M  V30 62 H -11.5964 -1.63184 -0.569189 0
M  V30 63 H -11.5553 -1.27497 1.16373 0
M  V30 64 H -13.1339 -1.24613 0.311031 0
M  V30 65 H 1.67148 0.789761 -1.12907 0
M  V30 66 H 2.93225 1.38696 1.43721 0
M  V30 67 H 2.76964 2.88424 0.51004 0
M  V30 68 H 3.88583 1.9441 -1.44486 0
M  V30 69 H 4.03227 0.334351 -0.698185 0
M  V30 70 H 6.08824 1.62428 -0.628169 0
M  V30 71 H 5.34039 2.95638 0.274083 0
M  V30 72 H 6.21192 1.78343 2.0038 0
M  V30 73 H 5.15072 -0.718308 0.739492 0
M  V30 74 H 6.07217 -0.643392 2.24739 0
M  V30 75 H 7.22271 0.00712233 -0.520128 0
M  V30 76 H 7.52209 -1.40903 0.580747 0
M  V30 77 H 8.15136 1.48279 1.46457 0
M  V30 78 H 8.50134 -0.0922313 2.28224 0
M  V30 79 H 9.50779 0.769982 -0.485964 0
M  V30 80 H 10.4528 0.882038 1.07532 0
M  V30 81 H 10.0087 -1.55816 1.29677 0
M  V30 82 H 11.3618 -2.31909 -0.63135 0
M  V30 83 H 11.0567 -0.649644 -1.33655 0
M  V30 84 H 12.5411 -1.42432 1.25415 0
M  V30 85 H 12.3084 0.301101 0.627807 0
M  V30 86 H 14.4908 -0.566383 -0.0220343 0
M  V30 87 H 13.6687 -2.04039 -0.789625 0
M  V30 88 H 12.7582 0.6441 -1.53293 0
M  V30 89 H 12.7912 -0.809467 -2.37692 0
M  V30 END ATOM
M  V30 BEGIN BOND
M  V30 1 1 1 2
M  V30 2 1 1 3
M  V30 3 1 3 4
M  V30 4 1 4 5
M  V30 5 1 5 6
M  V30 6 1 6 7
M  V30 7 1 7 8
M  V30 8 1 8 9
M  V30 9 1 9 10
M  V30 10 1 10 11
M  V30 11 1 10 12
M  V30 12 1 12 13
M  V30 13 1 13 14
M  V30 14 2 14 15
M  V30 15 1 15 16
M  V30 16 1 15 17
M  V30 17 1 1 18
M  V30 18 2 18 19
M  V30 19 1 18 20
M  V30 20 1 20 21
M  V30 21 1 21 22
M  V30 22 1 22 23
M  V30 23 1 23 24
M  V30 24 1 24 25
M  V30 25 1 25 26
M  V30 26 1 26 27
M  V30 27 1 27 28
M  V30 28 1 28 29
M  V30 29 1 29 30
M  V30 30 1 30 31
M  V30 31 1 31 32
M  V30 32 1 32 33
M  V30 33 1 1 34 CFG=3
M  V30 34 1 2 35
M  V30 35 1 2 36
M  V30 36 1 3 37
M  V30 37 1 3 38
M  V30 38 1 4 39
M  V30 39 1 4 40
M  V30 40 1 5 41
M  V30 41 1 5 42
M  V30 42 1 6 43
M  V30 43 1 6 44
M  V30 44 1 7 45
M  V30 45 1 8 46
M  V30 46 1 8 47
M  V30 47 1 9 48
M  V30 48 1 9 49
M  V30 49 1 10 50 CFG=3
M  V30 50 1 11 51
M  V30 51 1 11 52
M  V30 52 1 11 53
M  V30 53 1 12 54
M  V30 54 1 12 55
M  V30 55 1 13 56
M  V30 56 1 13 57
M  V30 57 1 14 58
M  V30 58 1 16 59
M  V30 59 1 16 60
M  V30 60 1 16 61
M  V30 61 1 17 62
M  V30 62 1 17 63
M  V30 63 1 17 64
M  V30 64 1 20 65
M  V30 65 1 21 66
M  V30 66 1 21 67
M  V30 67 1 22 68
M  V30 68 1 22 69
M  V30 69 1 23 70
M  V30 70 1 23 71
M  V30 71 1 24 72
M  V30 72 1 25 73
M  V30 73 1 25 74
M  V30 74 1 26 75
M  V30 75 1 26 76
M  V30 76 1 27 77
M  V30 77 1 27 78
M  V30 78 1 28 79
M  V30 79 1 28 80
M  V30 80 1 29 81
M  V30 81 1 30 82
M  V30 82 1 30 83
M  V30 83 1 31 84
M  V30 84 1 31 85
M  V30 85 1 32 86
M  V30 86 1 32 87
M  V30 87 1 33 88
M  V30 88 1 33 89
M  V30 END BOND
M  V30 END CTAB
M  END
