
     RDKit          3D

  0  0  0  0  0  0  0  0  0  0999 V3000
M  V30 BEGIN CTAB
M  V30 COUNTS 18 18 0 0 0
M  V30 BEGIN ATOM
M  V30 1 N -1.31296 0.350656 -1.67211 0
M  V30 2 C -1.40492 0.159365 -0.220169 0
M  V30 3 C -1.79995 -1.22188 0.025851 0
M  V30 4 O -2.02832 -2.12826 -0.992129 0
M  V30 5 O -1.94527 -1.62908 1.20156 0
M  V30 6 C -0.0801882 0.508242 0.422313 0
M  V30 7 C -0.0187212 1.26534 1.56353 0
M  V30 8 S 1.66489 1.34617 1.83073 0
M  V30 9 C 2.18871 0.426694 0.496662 0
M  V30 10 N 3.51376 0.0604119 0.0619591 0
M  V30 11 N 1.05318 0.103882 -0.0860423 0
M  V30 12 H -2.09377 -0.126032 -2.128 0
M  V30 13 H -1.28481 1.35485 -1.88063 0
M  V30 14 H -2.18822 0.839435 0.117818 0
M  V30 15 H -1.3907 -2.88862 -1.11971 0
M  V30 16 H -0.874887 1.68679 2.12162 0
M  V30 17 H 3.8624 -0.916983 0.0600708 0
M  V30 18 H 4.13977 0.809022 -0.26109 0
M  V30 END ATOM
M  V30 BEGIN BOND
M  V30 1 1 1 2
M  V30 2 1 2 3
M  V30 3 1 3 4
M  V30 4 2 3 5
M  V30 5 1 2 6
M  V30 6 2 6 7
M  V30 7 1 7 8
M  V30 8 1 8 9
M  V30 9 1 9 10
M  V30 10 2 9 11
M  V30 11 1 11 6
M  V30 12 1 1 12
M  V30 13 1 1 13
M  V30 14 1 2 14
M  V30 15 1 4 15
M  V30 16 1 7 16
M  V30 17 1 10 17
M  V30 18 1 10 18
M  V30 END BOND
M  V30 END CTAB
M  END
