
     RDKit          3D

  0  0  0  0  0  0  0  0  0  0999 V3000
M  V30 BEGIN CTAB
M  V30 COUNTS 30 30 0 0 0
M  V30 BEGIN ATOM
M  V30 1 N -6.85397 0.291936 0.819737 0
M  V30 2 C -5.51477 0.592167 0.485819 0
M  V30 3 S -5.0521 2.12688 0.281518 0
M  V30 4 N -4.60351 -0.487465 0.338404 0
M  V30 5 N -3.28866 -0.215829 0.0120194 0
M  V30 6 C -2.27824 -0.913058 0.316351 0
M  V30 7 C -0.954589 -0.493492 -0.101756 0
M  V30 8 C -0.804048 0.664685 -0.829754 0
M  V30 9 C 0.420656 1.10557 -1.24886 0
M  V30 10 C 1.60612 0.393916 -0.956962 0
M  V30 11 C 2.87497 0.915012 -1.43061 0
M  V30 12 N 3.98521 0.423151 -1.2642 0
M  V30 13 N 4.51632 -0.635662 -0.679921 0
M  V30 14 C 5.2781 -0.502609 0.52052 0
M  V30 15 N 5.48121 0.758704 1.10954 0
M  V30 16 S 5.91218 -1.82157 1.20608 0
M  V30 17 C 1.46178 -0.752314 -0.237039 0
M  V30 18 C 0.192931 -1.18663 0.183412 0
M  V30 19 H -7.08592 -0.352854 1.59668 0
M  V30 20 H -7.61322 0.726597 0.275284 0
M  V30 21 H -4.88302 -1.47703 0.465688 0
M  V30 22 H -2.36413 -1.82513 0.885711 0
M  V30 23 H -1.71306 1.23177 -1.06668 0
M  V30 24 H 0.519431 2.02984 -1.82722 0
M  V30 25 H 2.81095 1.89851 -2.02554 0
M  V30 26 H 4.38481 -1.59482 -1.105 0
M  V30 27 H 4.83534 1.58372 0.938309 0
M  V30 28 H 6.28034 0.956623 1.75025 0
M  V30 29 H 2.32215 -1.34234 0.019865 0
M  V30 30 H 0.126732 -2.09828 0.750091 0
M  V30 END ATOM
M  V30 BEGIN BOND
M  V30 1 1 1 2
M  V30 2 2 2 3
M  V30 3 1 2 4
M  V30 4 1 4 5
M  V30 5 2 5 6 CFG=2
M  V30 6 1 6 7
M  V30 7 2 7 8
M  V30 8 1 8 9
M  V30 9 2 9 10
M  V30 10 1 10 11
M  V30 11 2 11 12 CFG=2
M  V30 12 1 12 13
M  V30 13 1 13 14
M  V30 14 1 14 15
M  V30 15 2 14 16
M  V30 16 1 10 17
M  V30 17 2 17 18
M  V30 18 1 18 7
M  V30 19 1 1 19
M  V30 20 1 1 20
M  V30 21 1 4 21
M  V30 22 1 6 22
M  V30 23 1 8 23
M  V30 24 1 9 24
M  V30 25 1 11 25
M  V30 26 1 13 26
M  V30 27 1 15 27
M  V30 28 1 15 28
M  V30 29 1 17 29
M  V30 30 1 18 30
M  V30 END BOND
M  V30 END CTAB
M  END
