
     RDKit          3D

  0  0  0  0  0  0  0  0  0  0999 V3000
M  V30 BEGIN CTAB
M  V30 COUNTS 22 23 0 0 0
M  V30 BEGIN ATOM
M  V30 1 N 4.6807 0.452102 0.195517 0
M  V30 2 C 3.3754 -0.140453 0.10989 0
M  V30 3 N 3.07354 -1.44831 0.0409079 0
M  V30 4 N 1.75579 -1.60534 -0.0270146 0
M  V30 5 C 1.17697 -0.404938 -0.0035344 0
M  V30 6 N 2.19357 0.501713 0.0818574 0
M  V30 7 C -0.235183 -0.103542 -0.0566173 0
M  V30 8 C -0.704562 1.18675 -0.0243297 0
M  V30 9 C -2.06958 1.468 -0.0761066 0
M  V30 10 C -2.95275 0.417049 -0.161355 0
M  V30 11 C -2.50187 -0.883451 -0.194936 0
M  V30 12 C -1.14296 -1.13074 -0.142015 0
M  V30 13 F -3.36676 -1.92205 -0.27882 0
M  V30 14 N -4.35315 0.636041 -0.217434 0
M  V30 15 H 4.85349 1.41914 -0.179572 0
M  V30 16 H 5.48529 -0.0332465 0.618191 0
M  V30 17 H 3.80126 -2.1926 0.0435036 0
M  V30 18 H -0.0283173 2.00492 0.0414954 0
M  V30 19 H -2.45436 2.47333 -0.0518397 0
M  V30 20 H -0.818233 -2.1683 -0.170422 0
M  V30 21 H -4.70998 1.53801 -0.584015 0
M  V30 22 H -5.0583 -0.0640866 0.0917074 0
M  V30 END ATOM
M  V30 BEGIN BOND
M  V30 1 1 1 2
M  V30 2 1 2 3
M  V30 3 1 3 4
M  V30 4 2 4 5
M  V30 5 1 5 6
M  V30 6 1 5 7
M  V30 7 2 7 8
M  V30 8 1 8 9
M  V30 9 2 9 10
M  V30 10 1 10 11
M  V30 11 2 11 12
M  V30 12 1 11 13
M  V30 13 1 10 14
M  V30 14 2 6 2
M  V30 15 1 12 7
M  V30 16 1 1 15
M  V30 17 1 1 16
M  V30 18 1 3 17
M  V30 19 1 8 18
M  V30 20 1 9 19
M  V30 21 1 12 20
M  V30 22 1 14 21
M  V30 23 1 14 22
M  V30 END BOND
M  V30 END CTAB
M  END
