
     RDKit          3D

  0  0  0  0  0  0  0  0  0  0999 V3000
M  V30 BEGIN CTAB
M  V30 COUNTS 30 31 0 0 0
M  V30 BEGIN ATOM
M  V30 1 N 3.70004 -3.02389 -0.51012 0
M  V30 2 C 2.72664 -2.0059 -0.28291 0
M  V30 3 C 1.41669 -2.27202 -0.60423 0
M  V30 4 C 0.442338 -1.29195 -0.391727 0
M  V30 5 C 0.761834 -0.0640802 0.13238 0
M  V30 6 C 2.08376 0.169833 0.44336 0
M  V30 7 C 3.07011 -0.778386 0.245072 0
M  V30 8 N 4.43977 -0.561264 0.557615 0
M  V30 9 O -0.18644 0.876833 0.33424 0
M  V30 10 C -1.53316 0.901486 0.11823 0
M  V30 11 C -2.37459 1.1677 1.35226 0
M  V30 12 C -3.75661 1.2288 0.708577 0
M  V30 13 C -3.53498 1.87129 -0.632916 0
M  V30 14 C -2.01857 2.00184 -0.797182 0
M  V30 15 H 3.63407 -3.61166 -1.36876 0
M  V30 16 H 4.47396 -3.20819 0.141133 0
M  V30 17 H 1.172 -3.23471 -1.01419 0
M  V30 18 H -0.559244 -1.51714 -0.645734 0
M  V30 19 H 2.36999 1.10915 0.851311 0
M  V30 20 H 5.1582 -0.974451 -0.0759726 0
M  V30 21 H 4.75827 -0.0105219 1.38722 0
M  V30 22 H -1.89731 -0.041918 -0.304297 0
M  V30 23 H -2.13685 2.14927 1.78634 0
M  V30 24 H -2.33487 0.329033 2.06511 0
M  V30 25 H -4.02696 0.150375 0.510766 0
M  V30 26 H -4.49195 1.73165 1.33141 0
M  V30 27 H -3.88285 1.20576 -1.47716 0
M  V30 28 H -4.03689 2.85458 -0.664465 0
M  V30 29 H -1.72085 3.00498 -0.452121 0
M  V30 30 H -1.71554 1.84348 -1.84989 0
M  V30 END ATOM
M  V30 BEGIN BOND
M  V30 1 1 1 2
M  V30 2 2 2 3
M  V30 3 1 3 4
M  V30 4 2 4 5
M  V30 5 1 5 6
M  V30 6 2 6 7
M  V30 7 1 7 8
M  V30 8 1 5 9
M  V30 9 1 9 10
M  V30 10 1 10 11
M  V30 11 1 11 12
M  V30 12 1 12 13
M  V30 13 1 13 14
M  V30 14 1 7 2
M  V30 15 1 14 10
M  V30 16 1 1 15
M  V30 17 1 1 16
M  V30 18 1 3 17
M  V30 19 1 4 18
M  V30 20 1 6 19
M  V30 21 1 8 20
M  V30 22 1 8 21
M  V30 23 1 10 22
M  V30 24 1 11 23
M  V30 25 1 11 24
M  V30 26 1 12 25
M  V30 27 1 12 26
M  V30 28 1 13 27
M  V30 29 1 13 28
M  V30 30 1 14 29
M  V30 31 1 14 30
M  V30 END BOND
M  V30 END CTAB
M  END
