
     RDKit          3D

  0  0  0  0  0  0  0  0  0  0999 V3000
M  V30 BEGIN CTAB
M  V30 COUNTS 36 38 0 0 0
M  V30 BEGIN ATOM
M  V30 1 Cl -5.68868 3.06281 0.0341447 0
M  V30 2 C -4.56758 1.69459 0.0497115 0
M  V30 3 C -4.06958 1.26171 -1.18353 0
M  V30 4 C -3.19532 0.208571 -1.13978 0
M  V30 5 C -2.78814 -0.429626 -0.00652268 0
M  V30 6 C -3.32186 0.0444341 1.1995 0
M  V30 7 C -4.20547 1.10174 1.23161 0
M  V30 8 Cl -2.99373 -0.72598 2.73965 0
M  V30 9 C -1.7705 -1.45549 0.0296504 0
M  V30 10 C -0.380912 -1.09359 -0.228896 0
M  V30 11 C 0.315768 -1.9643 -1.10661 0
M  V30 12 N -0.3047 -3.12884 -1.63198 0
M  V30 13 N 1.58121 -1.70041 -1.44379 0
M  V30 14 C 2.24649 -0.640086 -0.996113 0
M  V30 15 N 1.62427 0.207438 -0.16843 0
M  V30 16 C 0.324128 -0.0131717 0.214044 0
M  V30 17 N -0.280636 0.93734 1.06099 0
M  V30 18 C 3.67543 -0.390209 -1.34144 0
M  V30 19 N 4.29593 0.513921 -0.403183 0
M  V30 20 C 4.3958 1.84033 -0.546001 0
M  V30 21 N 5.00091 2.4003 0.538568 0
M  V30 22 C 5.2538 1.35542 1.32482 0
M  V30 23 N 4.84054 0.215956 0.784386 0
M  V30 24 H -4.39308 1.76668 -2.07517 0
M  V30 25 H -2.80148 -0.152848 -2.09032 0
M  V30 26 H -4.61556 1.47533 2.1694 0
M  V30 27 H -1.77298 -2.01848 1.02493 0
M  V30 28 H -2.07389 -2.25675 -0.699829 0
M  V30 29 H -1.11187 -3.12307 -2.25968 0
M  V30 30 H 0.0689604 -4.09761 -1.38353 0
M  V30 31 H -0.769583 1.74968 0.626353 0
M  V30 32 H -0.272426 0.880955 2.09659 0
M  V30 33 H 4.20309 -1.37375 -1.35138 0
M  V30 34 H 3.74578 -0.014378 -2.39317 0
M  V30 35 H 4.06039 2.42328 -1.39265 0
M  V30 36 H 5.7455 1.43811 2.30771 0
M  V30 END ATOM
M  V30 BEGIN BOND
M  V30 1 1 1 2
M  V30 2 2 2 3
M  V30 3 1 3 4
M  V30 4 2 4 5
M  V30 5 1 5 6
M  V30 6 2 6 7
M  V30 7 1 6 8
M  V30 8 1 5 9
M  V30 9 1 9 10
M  V30 10 2 10 11
M  V30 11 1 11 12
M  V30 12 1 11 13
M  V30 13 2 13 14
M  V30 14 1 14 15
M  V30 15 2 15 16
M  V30 16 1 16 17
M  V30 17 1 14 18
M  V30 18 1 18 19
M  V30 19 1 19 20
M  V30 20 2 20 21
M  V30 21 1 21 22
M  V30 22 2 22 23
M  V30 23 1 7 2
M  V30 24 1 16 10
M  V30 25 1 23 19
M  V30 26 1 3 24
M  V30 27 1 4 25
M  V30 28 1 7 26
M  V30 29 1 9 27
M  V30 30 1 9 28
M  V30 31 1 12 29
M  V30 32 1 12 30
M  V30 33 1 17 31
M  V30 34 1 17 32
M  V30 35 1 18 33
M  V30 36 1 18 34
M  V30 37 1 20 35
M  V30 38 1 22 36
M  V30 END BOND
M  V30 END CTAB
M  END
