
     RDKit          3D

  0  0  0  0  0  0  0  0  0  0999 V3000
M  V30 BEGIN CTAB
M  V30 COUNTS 33 35 0 0 0
M  V30 BEGIN ATOM
M  V30 1 C 0.0664979 -1.8911 -0.822651 0
M  V30 2 C 0.658043 -0.815614 0.0779905 0
M  V30 3 C -0.0368631 -0.45458 1.19383 0
M  V30 4 C -1.38644 -0.846963 1.70337 0
M  V30 5 C -2.48819 -0.111845 1.10847 0
M  V30 6 C -3.226 -0.60951 0.0668654 0
M  V30 7 C -4.27485 0.137332 -0.47056 0
M  V30 8 C -4.59134 1.38403 0.0297047 0
M  V30 9 C -3.83155 1.88385 1.09411 0
M  V30 10 C -2.79924 1.14251 1.61902 0
M  V30 11 S 1.01598 0.701602 1.92951 0
M  V30 12 C 2.27848 0.677768 0.795936 0
M  V30 13 C 1.85904 -0.22968 -0.134143 0
M  V30 14 C 2.75104 -0.427069 -1.21175 0
M  V30 15 N 2.483 -1.31562 -2.2847 0
M  V30 16 N 3.89455 0.252516 -1.25001 0
M  V30 17 C 4.30882 1.13512 -0.348466 0
M  V30 18 N 5.53792 1.81362 -0.462884 0
M  V30 19 N 3.47366 1.34251 0.690873 0
M  V30 20 H 0.924157 -2.6395 -0.896304 0
M  V30 21 H -0.801281 -2.37263 -0.377199 0
M  V30 22 H -0.0911002 -1.47545 -1.82279 0
M  V30 23 H -1.36982 -0.721633 2.80362 0
M  V30 24 H -1.48536 -1.93199 1.50399 0
M  V30 25 H -3.04869 -1.57413 -0.383586 0
M  V30 26 H -4.87459 -0.226219 -1.29149 0
M  V30 27 H -5.39855 1.99139 -0.363499 0
M  V30 28 H -4.08142 2.86555 1.48704 0
M  V30 29 H -2.19375 1.49254 2.43514 0
M  V30 30 H 2.84116 -2.29765 -2.30672 0
M  V30 31 H 1.90689 -1.03178 -3.11901 0
M  V30 32 H 6.31444 1.4438 -1.03409 0
M  V30 33 H 5.66539 2.70884 0.0403689 0
M  V30 END ATOM
M  V30 BEGIN BOND
M  V30 1 1 1 2
M  V30 2 2 2 3
M  V30 3 1 3 4
M  V30 4 1 4 5
M  V30 5 2 5 6
M  V30 6 1 6 7
M  V30 7 2 7 8
M  V30 8 1 8 9
M  V30 9 2 9 10
M  V30 10 1 3 11
M  V30 11 1 11 12
M  V30 12 2 12 13
M  V30 13 1 13 14
M  V30 14 1 14 15
M  V30 15 2 14 16
M  V30 16 1 16 17
M  V30 17 1 17 18
M  V30 18 2 17 19
M  V30 19 1 13 2
M  V30 20 1 10 5
M  V30 21 1 19 12
M  V30 22 1 1 20
M  V30 23 1 1 21
M  V30 24 1 1 22
M  V30 25 1 4 23
M  V30 26 1 4 24
M  V30 27 1 6 25
M  V30 28 1 7 26
M  V30 29 1 8 27
M  V30 30 1 9 28
M  V30 31 1 10 29
M  V30 32 1 15 30
M  V30 33 1 15 31
M  V30 34 1 18 32
M  V30 35 1 18 33
M  V30 END BOND
M  V30 END CTAB
M  END
