
     RDKit          3D

  0  0  0  0  0  0  0  0  0  0999 V3000
M  V30 BEGIN CTAB
M  V30 COUNTS 38 39 0 0 0
M  V30 BEGIN ATOM
M  V30 1 N -2.56542 2.31324 -0.00696408 0
M  V30 2 C -2.04678 1.48624 1.04985 0
M  V30 3 C -1.82122 0.0620911 0.565773 0
M  V30 4 C -3.24193 -0.437749 0.0987375 0
M  V30 5 C -2.95061 -1.71004 -0.657712 0
M  V30 6 C -2.42935 -1.34878 -2.01571 0
M  V30 7 C -1.61316 -0.095734 -1.90896 0
M  V30 8 N -0.944793 -0.0251612 -0.563491 0
M  V30 9 C 0.437255 -0.0666192 -0.593493 0
M  V30 10 O 0.901879 -0.136173 -1.83205 0
M  V30 11 C 1.4755 -0.0517752 0.406169 0
M  V30 12 C 1.26337 -0.00679551 1.75439 0
M  V30 13 C 2.36073 -0.00539827 2.62431 0
M  V30 14 C 3.65943 -0.0480033 2.17399 0
M  V30 15 C 3.89588 -0.0938351 0.817629 0
M  V30 16 C 2.82607 -0.0953543 -0.0379072 0
M  V30 17 N 3.11801 -0.142688 -1.43439 0
M  V30 18 N 5.22132 -0.139547 0.281466 0 CHG=1
M  V30 19 O 6.13844 -0.645214 0.976594 0
M  V30 20 O 5.55271 0.334778 -0.945358 0 CHG=-1
M  V30 21 H -3.53218 2.65922 0.167076 0
M  V30 22 H -1.90543 3.06612 -0.28655 0
M  V30 23 H -1.15269 1.96153 1.45128 0
M  V30 24 H -2.7735 1.45154 1.91559 0
M  V30 25 H -1.61646 -0.621532 1.38924 0
M  V30 26 H -3.60968 0.369011 -0.552846 0
M  V30 27 H -3.82308 -0.586166 1.01917 0
M  V30 28 H -2.12923 -2.2404 -0.107311 0
M  V30 29 H -3.83912 -2.37966 -0.70709 0
M  V30 30 H -3.33159 -1.13238 -2.65509 0
M  V30 31 H -1.80855 -2.1568 -2.45193 0
M  V30 32 H -2.27141 0.776232 -2.03971 0
M  V30 33 H -0.876778 -0.0759665 -2.70513 0
M  V30 34 H 0.29085 0.0259538 2.19047 0
M  V30 35 H 2.17736 0.030019 3.67513 0
M  V30 36 H 4.51268 -0.0472957 2.83821 0
M  V30 37 H 3.23508 0.768648 -1.92259 0
M  V30 38 H 3.21637 -1.01554 -1.97077 0
M  V30 END ATOM
M  V30 BEGIN BOND
M  V30 1 1 1 2
M  V30 2 1 2 3
M  V30 3 1 3 4
M  V30 4 1 4 5
M  V30 5 1 5 6
M  V30 6 1 6 7
M  V30 7 1 7 8
M  V30 8 1 8 9
M  V30 9 2 9 10
M  V30 10 1 9 11
M  V30 11 2 11 12
M  V30 12 1 12 13
M  V30 13 2 13 14
M  V30 14 1 14 15
M  V30 15 2 15 16
M  V30 16 1 16 17
M  V30 17 1 15 18
M  V30 18 2 18 19
M  V30 19 1 18 20
M  V30 20 1 8 3
M  V30 21 1 16 11
M  V30 22 1 1 21
M  V30 23 1 1 22
M  V30 24 1 2 23
M  V30 25 1 2 24
M  V30 26 1 3 25
M  V30 27 1 4 26
M  V30 28 1 4 27
M  V30 29 1 5 28
M  V30 30 1 5 29
M  V30 31 1 6 30
M  V30 32 1 6 31
M  V30 33 1 7 32
M  V30 34 1 7 33
M  V30 35 1 12 34
M  V30 36 1 13 35
M  V30 37 1 14 36
M  V30 38 1 17 37
M  V30 39 1 17 38
M  V30 END BOND
M  V30 END CTAB
M  END
