
     RDKit          3D

  0  0  0  0  0  0  0  0  0  0999 V3000
M  V30 BEGIN CTAB
M  V30 COUNTS 23 24 0 0 0
M  V30 BEGIN ATOM
M  V30 1 N 3.48529 0.893116 -0.276063 0
M  V30 2 C 2.09078 0.640735 -0.15781 0
M  V30 3 C 1.16233 1.59888 -0.510467 0
M  V30 4 C -0.177883 1.34103 -0.390946 0
M  V30 5 C -0.582082 0.10083 0.0903831 0
M  V30 6 C 0.352729 -0.83678 0.435072 0
M  V30 7 C 1.70968 -0.605662 0.325535 0
M  V30 8 N 2.67484 -1.58851 0.687096 0
M  V30 9 N -1.98325 -0.169279 0.215535 0
M  V30 10 C -2.95734 0.316261 -0.534004 0
M  V30 11 C -4.16498 -0.178117 -0.101138 0
M  V30 12 N -3.87411 -0.987274 0.947862 0
M  V30 13 C -2.52702 -0.971621 1.13072 0
M  V30 14 H 4.18931 0.151871 -0.224028 0
M  V30 15 H 3.80468 1.87733 -0.42231 0
M  V30 16 H 1.53826 2.53216 -0.87379 0
M  V30 17 H -0.89707 2.08095 -0.663244 0
M  V30 18 H 0.0164483 -1.79745 0.808271 0
M  V30 19 H 3.41527 -1.89179 -0.0121855 0
M  V30 20 H 2.68285 -2.03426 1.63832 0
M  V30 21 H -2.84718 0.995256 -1.36105 0
M  V30 22 H -5.12997 0.0524117 -0.532475 0
M  V30 23 H -1.98157 -1.52009 1.8941 0
M  V30 END ATOM
M  V30 BEGIN BOND
M  V30 1 1 1 2
M  V30 2 2 2 3
M  V30 3 1 3 4
M  V30 4 2 4 5
M  V30 5 1 5 6
M  V30 6 2 6 7
M  V30 7 1 7 8
M  V30 8 1 5 9
M  V30 9 1 9 10
M  V30 10 2 10 11
M  V30 11 1 11 12
M  V30 12 2 12 13
M  V30 13 1 7 2
M  V30 14 1 13 9
M  V30 15 1 1 14
M  V30 16 1 1 15
M  V30 17 1 3 16
M  V30 18 1 4 17
M  V30 19 1 6 18
M  V30 20 1 8 19
M  V30 21 1 8 20
M  V30 22 1 10 21
M  V30 23 1 11 22
M  V30 24 1 13 23
M  V30 END BOND
M  V30 END CTAB
M  END
