
     RDKit          3D

  0  0  0  0  0  0  0  0  0  0999 V3000
M  V30 BEGIN CTAB
M  V30 COUNTS 26 26 0 0 0
M  V30 BEGIN ATOM
M  V30 1 N -0.475476 -1.7224 0.0476959 0
M  V30 2 C 0.0386026 -0.549479 -0.567474 0 CFG=2
M  V30 3 C 1.52435 -0.552117 -0.39184 0
M  V30 4 O 2.30877 -1.58222 -0.581186 0
M  V30 5 N 3.55688 -1.24548 -0.340711 0
M  V30 6 C 3.61151 0.0409191 0.0185054 0
M  V30 7 N 2.32271 0.468001 -0.0173633 0
M  V30 8 N 4.75591 0.830148 0.37074 0
M  V30 9 C -0.491999 0.657962 0.124104 0
M  V30 10 C -1.98407 0.785004 0.106193 0
M  V30 11 C -2.54415 0.860062 -1.29087 0
M  V30 12 C -2.70122 -0.280997 0.858439 0
M  V30 13 H -0.527338 -2.55957 -0.471028 0
M  V30 14 H -0.224505 -1.81581 1.00187 0
M  V30 15 H -0.162606 -0.5707 -1.65426 0
M  V30 16 H 4.63299 1.84382 0.512931 0
M  V30 17 H 5.66559 0.32347 0.464857 0
M  V30 18 H -0.0878831 0.681552 1.15515 0
M  V30 19 H -0.0779839 1.55553 -0.398373 0
M  V30 20 H -2.22588 1.76949 0.591226 0
M  V30 21 H -1.82437 1.36476 -1.93802 0
M  V30 22 H -2.74362 -0.181529 -1.64554 0
M  V30 23 H -3.48824 1.4624 -1.30129 0
M  V30 24 H -2.18186 -0.591067 1.80212 0
M  V30 25 H -2.99732 -1.1532 0.23837 0
M  V30 26 H -3.67879 0.161447 1.21138 0
M  V30 END ATOM
M  V30 BEGIN BOND
M  V30 1 1 1 2
M  V30 2 1 2 3
M  V30 3 1 3 4
M  V30 4 1 4 5
M  V30 5 2 5 6
M  V30 6 1 6 7
M  V30 7 1 6 8
M  V30 8 1 2 9
M  V30 9 1 9 10
M  V30 10 1 10 11
M  V30 11 1 10 12
M  V30 12 2 7 3
M  V30 13 1 1 13
M  V30 14 1 1 14
M  V30 15 1 2 15 CFG=3
M  V30 16 1 8 16
M  V30 17 1 8 17
M  V30 18 1 9 18
M  V30 19 1 9 19
M  V30 20 1 10 20
M  V30 21 1 11 21
M  V30 22 1 11 22
M  V30 23 1 11 23
M  V30 24 1 12 24
M  V30 25 1 12 25
M  V30 26 1 12 26
M  V30 END BOND
M  V30 END CTAB
M  END
