
     RDKit          3D

  0  0  0  0  0  0  0  0  0  0999 V3000
M  V30 BEGIN CTAB
M  V30 COUNTS 65 70 0 0 0
M  V30 BEGIN ATOM
M  V30 1 N -6.27217 -1.32011 -4.09779 0
M  V30 2 C -6.42633 -0.731513 -2.78699 0
M  V30 3 N -7.64053 -0.370999 -2.3475 0
M  V30 4 C -7.85139 0.172743 -1.15852 0
M  V30 5 N -9.1273 0.562891 -0.669191 0
M  V30 6 C -6.7341 0.365312 -0.350991 0
M  V30 7 C -5.47272 0.00449379 -0.776253 0
M  V30 8 N -5.36664 -0.538218 -1.99668 0
M  V30 9 N -4.55902 0.297884 0.197987 0
M  V30 10 C -5.2585 0.831571 1.20472 0
M  V30 11 N -6.55577 0.870944 0.875691 0
M  V30 12 C -3.13139 0.0721839 0.134708 0 CFG=2
M  V30 13 C -2.62053 -0.50292 1.42804 0
M  V30 14 O -1.42413 -0.00498736 1.8571 0
M  V30 15 C -0.428118 0.0955831 0.897246 0
M  V30 16 C -0.905409 0.959016 -0.243068 0
M  V30 17 C -2.36359 1.34571 -0.129907 0 CFG=2
M  V30 18 C -2.62123 2.42265 0.870188 0
M  V30 19 O -2.71016 1.87849 -1.39576 0
M  V30 20 C -0.0389596 -1.27718 0.483421 0
M  V30 21 C 0.936566 -1.8166 1.5342 0
M  V30 22 N 2.20818 -1.14571 1.17072 0
M  V30 23 C 2.09332 0.265154 1.03425 0
M  V30 24 C 0.743273 0.762873 1.57562 0
M  V30 25 C 3.34124 -1.91683 1.0161 0
M  V30 26 O 3.11796 -3.19638 1.24058 0
M  V30 27 C 4.69903 -1.59395 0.662092 0
M  V30 28 C 5.64459 -2.63329 0.652537 0
M  V30 29 C 6.9586 -2.42302 0.316997 0
M  V30 30 C 7.42108 -1.17585 -0.0294814 0
M  V30 31 C 6.52928 -0.13152 -0.0331079 0
M  V30 32 C 5.19303 -0.36638 0.311971 0
M  V30 33 N 7.22002 0.953107 -0.399376 0
M  V30 34 C 8.51265 0.64443 -0.628571 0
M  V30 35 N 8.61878 -0.674603 -0.395226 0
M  V30 36 C 9.61082 1.57174 -1.0551 0
M  V30 37 H -5.62683 -0.906283 -4.78052 0
M  V30 38 H -6.81953 -2.16095 -4.3398 0
M  V30 39 H -9.41078 1.55948 -0.588249 0
M  V30 40 H -9.85021 -0.14682 -0.364529 0
M  V30 41 H -4.88375 1.1995 2.17674 0
M  V30 42 H -2.94755 -0.591504 -0.732051 0
M  V30 43 H -3.38465 -0.22058 2.21302 0
M  V30 44 H -2.61376 -1.62678 1.36263 0
M  V30 45 H -0.31447 1.90579 -0.273329 0
M  V30 46 H -0.720051 0.449173 -1.20839 0
M  V30 47 H -3.58513 2.93885 0.602696 0
M  V30 48 H -2.66929 2.11357 1.91222 0
M  V30 49 H -1.83838 3.21579 0.694002 0
M  V30 50 H -2.4256 2.82516 -1.39245 0
M  V30 51 H 0.503047 -1.20844 -0.495955 0
M  V30 52 H -0.847876 -2.00812 0.419315 0
M  V30 53 H 1.03239 -2.8996 1.50289 0
M  V30 54 H 0.610891 -1.45224 2.52717 0
M  V30 55 H 2.27983 0.68459 0.0446629 0
M  V30 56 H 2.82692 0.74226 1.74702 0
M  V30 57 H 0.726511 1.84117 1.42592 0
M  V30 58 H 0.776873 0.572229 2.65831 0
M  V30 59 H 5.32702 -3.64779 0.922531 0
M  V30 60 H 7.65711 -3.26014 0.32412 0
M  V30 61 H 4.55533 0.473939 0.283664 0
M  V30 62 H 6.78553 1.90495 -0.487976 0
M  V30 63 H 10.0866 1.18305 -1.95744 0
M  V30 64 H 10.3082 1.72417 -0.199145 0
M  V30 65 H 9.12124 2.53887 -1.33562 0
M  V30 END ATOM
M  V30 BEGIN BOND
M  V30 1 1 1 2
M  V30 2 2 2 3
M  V30 3 1 3 4
M  V30 4 1 4 5
M  V30 5 2 4 6
M  V30 6 1 6 7
M  V30 7 2 7 8
M  V30 8 1 7 9
M  V30 9 1 9 10
M  V30 10 2 10 11
M  V30 11 1 9 12
M  V30 12 1 12 13
M  V30 13 1 13 14
M  V30 14 1 14 15
M  V30 15 1 15 16
M  V30 16 1 16 17
M  V30 17 1 17 18
M  V30 18 1 17 19 CFG=3
M  V30 19 1 15 20
M  V30 20 1 20 21
M  V30 21 1 21 22
M  V30 22 1 22 23
M  V30 23 1 23 24
M  V30 24 1 22 25
M  V30 25 2 25 26
M  V30 26 1 25 27
M  V30 27 2 27 28
M  V30 28 1 28 29
M  V30 29 2 29 30
M  V30 30 1 30 31
M  V30 31 2 31 32
M  V30 32 1 31 33
M  V30 33 1 33 34
M  V30 34 2 34 35
M  V30 35 1 34 36
M  V30 36 1 8 2
M  V30 37 1 17 12
M  V30 38 1 32 27
M  V30 39 1 11 6
M  V30 40 1 24 15
M  V30 41 1 35 30
M  V30 42 1 1 37
M  V30 43 1 1 38
M  V30 44 1 5 39
M  V30 45 1 5 40
M  V30 46 1 10 41
M  V30 47 1 12 42 CFG=3
M  V30 48 1 13 43
M  V30 49 1 13 44
M  V30 50 1 16 45
M  V30 51 1 16 46
M  V30 52 1 18 47
M  V30 53 1 18 48
M  V30 54 1 18 49
M  V30 55 1 19 50
M  V30 56 1 20 51
M  V30 57 1 20 52
M  V30 58 1 21 53
M  V30 59 1 21 54
M  V30 60 1 23 55
M  V30 61 1 23 56
M  V30 62 1 24 57
M  V30 63 1 24 58
M  V30 64 1 28 59
M  V30 65 1 29 60
M  V30 66 1 32 61
M  V30 67 1 33 62
M  V30 68 1 36 63
M  V30 69 1 36 64
M  V30 70 1 36 65
M  V30 END BOND
M  V30 END CTAB
M  END
