
     RDKit          3D

  0  0  0  0  0  0  0  0  0  0999 V3000
M  V30 BEGIN CTAB
M  V30 COUNTS 24 25 0 0 0
M  V30 BEGIN ATOM
M  V30 1 N 4.49723 0.142744 0.32191 0
M  V30 2 N 3.63556 -0.615599 -0.458548 0
M  V30 3 C 2.33564 -0.135794 -0.763215 0
M  V30 4 N 1.94614 0.612024 -1.80869 0
M  V30 5 N 0.6619 0.816515 -1.68169 0
M  V30 6 C 0.177354 0.203237 -0.540753 0
M  V30 7 N 1.23089 -0.381454 0.0106964 0
M  V30 8 N 1.32235 -1.19704 1.16168 0
M  V30 9 C -1.23573 0.225871 -0.216546 0
M  V30 10 C -1.78197 0.278867 1.02721 0
M  V30 11 Cl -0.824082 0.354971 2.51201 0
M  V30 12 C -3.17116 0.352972 1.21581 0
M  V30 13 C -4.02662 0.377099 0.145852 0
M  V30 14 C -3.49158 0.327067 -1.11749 0
M  V30 15 C -2.14122 0.253868 -1.29761 0
M  V30 16 H 4.81499 0.946392 -0.271649 0
M  V30 17 H 3.96785 0.587157 1.12031 0
M  V30 18 H 3.94765 -1.53197 -0.815995 0
M  V30 19 H 1.97815 -0.939944 1.92727 0
M  V30 20 H 0.760624 -2.06631 1.29064 0
M  V30 21 H -3.55984 0.390642 2.21921 0
M  V30 22 H -5.10633 0.434696 0.296767 0
M  V30 23 H -4.16201 0.346963 -1.9601 0
M  V30 24 H -1.77577 0.217023 -2.31707 0
M  V30 END ATOM
M  V30 BEGIN BOND
M  V30 1 1 1 2
M  V30 2 1 2 3
M  V30 3 2 3 4
M  V30 4 1 4 5
M  V30 5 2 5 6
M  V30 6 1 6 7
M  V30 7 1 7 8
M  V30 8 1 6 9
M  V30 9 2 9 10
M  V30 10 1 10 11
M  V30 11 1 10 12
M  V30 12 2 12 13
M  V30 13 1 13 14
M  V30 14 2 14 15
M  V30 15 1 7 3
M  V30 16 1 15 9
M  V30 17 1 1 16
M  V30 18 1 1 17
M  V30 19 1 2 18
M  V30 20 1 8 19
M  V30 21 1 8 20
M  V30 22 1 12 21
M  V30 23 1 13 22
M  V30 24 1 14 23
M  V30 25 1 15 24
M  V30 END BOND
M  V30 END CTAB
M  END
