
     RDKit          3D

  0  0  0  0  0  0  0  0  0  0999 V3000
M  V30 BEGIN CTAB
M  V30 COUNTS 30 31 0 0 0
M  V30 BEGIN ATOM
M  V30 1 N -4.2803 -1.89815 0.675175 0
M  V30 2 C -3.37125 -0.810736 0.427721 0
M  V30 3 N -2.18983 -1.06113 -0.190905 0
M  V30 4 C -1.30339 -0.0945176 -0.448952 0
M  V30 5 C -0.0195488 -0.362009 -1.12068 0
M  V30 6 N 1.05472 -0.683555 -0.226152 0
M  V30 7 C 1.26342 0.414221 0.669573 0
M  V30 8 C 2.55012 0.148646 1.4149 0
M  V30 9 N 3.63375 0.284702 0.490741 0
M  V30 10 C 3.41329 -0.267585 -0.801358 0
M  V30 11 C 2.1952 -1.12245 -0.941259 0
M  V30 12 N -1.62502 1.15147 -0.0702498 0
M  V30 13 C -2.79091 1.44357 0.548278 0
M  V30 14 N -3.6445 0.44922 0.785414 0
M  V30 15 N -3.07636 2.80613 0.930219 0
M  V30 16 H -4.42071 -2.32797 1.59459 0
M  V30 17 H -4.82346 -2.26309 -0.135368 0
M  V30 18 H 0.312033 0.552583 -1.69738 0
M  V30 19 H -0.0981255 -1.16096 -1.88442 0
M  V30 20 H 0.390171 0.416297 1.38397 0
M  V30 21 H 1.33623 1.33458 0.0927642 0
M  V30 22 H 2.494 -0.859722 1.86435 0
M  V30 23 H 2.68093 0.890777 2.23588 0
M  V30 24 H 4.57181 0.183954 0.880308 0
M  V30 25 H 3.44318 0.550059 -1.55163 0
M  V30 26 H 4.29381 -0.923734 -1.04302 0
M  V30 27 H 1.95784 -1.19186 -2.02805 0
M  V30 28 H 2.40781 -2.18789 -0.632174 0
M  V30 29 H -3.19258 3.49416 0.133716 0
M  V30 30 H -3.1623 3.095 1.91261 0
M  V30 END ATOM
M  V30 BEGIN BOND
M  V30 1 1 1 2
M  V30 2 2 2 3
M  V30 3 1 3 4
M  V30 4 1 4 5
M  V30 5 1 5 6
M  V30 6 1 6 7
M  V30 7 1 7 8
M  V30 8 1 8 9
M  V30 9 1 9 10
M  V30 10 1 10 11
M  V30 11 2 4 12
M  V30 12 1 12 13
M  V30 13 2 13 14
M  V30 14 1 13 15
M  V30 15 1 14 2
M  V30 16 1 11 6
M  V30 17 1 1 16
M  V30 18 1 1 17
M  V30 19 1 5 18
M  V30 20 1 5 19
M  V30 21 1 7 20
M  V30 22 1 7 21
M  V30 23 1 8 22
M  V30 24 1 8 23
M  V30 25 1 9 24
M  V30 26 1 10 25
M  V30 27 1 10 26
M  V30 28 1 11 27
M  V30 29 1 11 28
M  V30 30 1 15 29
M  V30 31 1 15 30
M  V30 END BOND
M  V30 END CTAB
M  END
