
     RDKit          3D

  0  0  0  0  0  0  0  0  0  0999 V3000
M  V30 BEGIN CTAB
M  V30 COUNTS 55 57 0 0 0
M  V30 BEGIN ATOM
M  V30 1 C -0.472742 -2.70842 -2.81033 0
M  V30 2 C 0.487232 -2.17432 -1.79233 0
M  V30 3 C -0.124295 -1.36906 -0.703715 0
M  V30 4 C 1.02826 -0.963997 0.217872 0
M  V30 5 O 1.01621 -1.32617 1.39843 0
M  V30 6 N 2.03916 -0.195469 -0.34912 0
M  V30 7 C 3.18517 0.276427 0.309245 0
M  V30 8 C 3.97949 1.25367 -0.329604 0
M  V30 9 C 5.11928 1.75757 0.228828 0
M  V30 10 C 5.557 1.33009 1.46263 0
M  V30 11 C 4.79527 0.38101 2.09457 0
M  V30 12 C 3.62826 -0.139489 1.53001 0
M  V30 13 S 7.02049 1.97749 2.17547 0
M  V30 14 O 7.14825 3.39936 1.76471 0
M  V30 15 O 6.93926 1.80958 3.67687 0
M  V30 16 N 8.33865 0.993732 1.6448 0
M  V30 17 S -0.87996 0.17912 -1.18415 0
M  V30 18 C -2.32616 0.0341467 -2.1936 0
M  V30 19 N -2.28256 0.0341922 -3.55849 0
M  V30 20 C -3.38629 -0.0788559 -4.29888 0
M  V30 21 O -3.30906 -0.0752056 -5.57237 0
M  V30 22 C -4.59904 -0.198395 -3.65846 0
M  V30 23 C -4.64729 -0.198696 -2.26402 0
M  V30 24 N -3.51507 -0.0828719 -1.55151 0
M  V30 25 C -3.53937 -0.0793321 -0.131035 0
M  V30 26 C -3.93968 -1.19689 0.577738 0
M  V30 27 C -3.95407 -1.16621 1.96611 0
M  V30 28 C -3.57603 -0.0402449 2.66872 0
M  V30 29 C -3.17477 1.08068 1.9771 0
M  V30 30 C -3.167 1.03289 0.610289 0
M  V30 31 C -2.76476 2.29938 2.74141 0
M  V30 32 N -5.89046 -0.321402 -1.58776 0
M  V30 33 H -1.50583 -2.62718 -2.4297 0
M  V30 34 H -0.359685 -2.24367 -3.80651 0
M  V30 35 H -0.248752 -3.80783 -3.01009 0
M  V30 36 H 1.05445 -3.04391 -1.34303 0
M  V30 37 H 1.2798 -1.62128 -2.35405 0
M  V30 38 H -0.784936 -2.01187 -0.103573 0
M  V30 39 H 1.93109 0.0523706 -1.37484 0
M  V30 40 H 3.66796 1.61601 -1.30448 0
M  V30 41 H 5.67968 2.49719 -0.303636 0
M  V30 42 H 5.13526 0.0328066 3.07905 0
M  V30 43 H 3.12446 -0.883046 2.11567 0
M  V30 44 H 9.25063 1.48421 1.65882 0
M  V30 45 H 8.15453 0.527056 0.731192 0
M  V30 46 H -5.49415 -0.290544 -4.24934 0
M  V30 47 H -4.24615 -2.10817 0.0640755 0
M  V30 48 H -4.26905 -2.04563 2.5327 0
M  V30 49 H -3.60091 -0.0545051 3.74832 0
M  V30 50 H -2.8531 1.90545 0.0318556 0
M  V30 51 H -1.84507 2.69268 2.23057 0
M  V30 52 H -2.53955 2.07564 3.78729 0
M  V30 53 H -3.53326 3.09286 2.59526 0
M  V30 54 H -6.36801 -1.24469 -1.54265 0
M  V30 55 H -6.36278 0.48172 -1.12269 0
M  V30 END ATOM
M  V30 BEGIN BOND
M  V30 1 1 1 2
M  V30 2 1 2 3
M  V30 3 1 3 4
M  V30 4 2 4 5
M  V30 5 1 4 6
M  V30 6 1 6 7
M  V30 7 2 7 8
M  V30 8 1 8 9
M  V30 9 2 9 10
M  V30 10 1 10 11
M  V30 11 2 11 12
M  V30 12 1 10 13
M  V30 13 2 13 14
M  V30 14 2 13 15
M  V30 15 1 13 16
M  V30 16 1 3 17
M  V30 17 1 17 18
M  V30 18 2 18 19
M  V30 19 1 19 20
M  V30 20 2 20 21
M  V30 21 1 20 22
M  V30 22 2 22 23
M  V30 23 1 23 24
M  V30 24 1 24 25
M  V30 25 2 25 26
M  V30 26 1 26 27
M  V30 27 2 27 28
M  V30 28 1 28 29
M  V30 29 2 29 30
M  V30 30 1 29 31
M  V30 31 1 23 32
M  V30 32 1 12 7
M  V30 33 1 24 18
M  V30 34 1 30 25
M  V30 35 1 1 33
M  V30 36 1 1 34
M  V30 37 1 1 35
M  V30 38 1 2 36
M  V30 39 1 2 37
M  V30 40 1 3 38
M  V30 41 1 6 39
M  V30 42 1 8 40
M  V30 43 1 9 41
M  V30 44 1 11 42
M  V30 45 1 12 43
M  V30 46 1 16 44
M  V30 47 1 16 45
M  V30 48 1 22 46
M  V30 49 1 26 47
M  V30 50 1 27 48
M  V30 51 1 28 49
M  V30 52 1 30 50
M  V30 53 1 31 51
M  V30 54 1 31 52
M  V30 55 1 31 53
M  V30 56 1 32 54
M  V30 57 1 32 55
M  V30 END BOND
M  V30 END CTAB
M  END
