
     RDKit          3D

  0  0  0  0  0  0  0  0  0  0999 V3000
M  V30 BEGIN CTAB
M  V30 COUNTS 63 66 0 0 0
M  V30 BEGIN ATOM
M  V30 1 C 9.15613 -1.24036 0.411264 0
M  V30 2 C 7.62947 -1.24865 0.575383 0
M  V30 3 C 7.0479 -1.82567 -0.681324 0
M  V30 4 O 5.66664 -1.8713 -0.605683 0
M  V30 5 C 4.85975 -0.774291 -0.495338 0
M  V30 6 O 5.32649 0.382474 -0.459997 0
M  V30 7 C 3.42357 -0.96208 -0.417279 0
M  V30 8 C 2.72201 -2.16614 -0.440636 0
M  V30 9 N 3.32885 -3.44702 -0.548961 0
M  V30 10 O 1.4174 -1.92289 -0.346336 0
M  V30 11 C 1.23618 -0.644634 -0.264039 0
M  V30 12 C 2.44169 -0.00298593 -0.303077 0
M  V30 13 C 2.44297 1.35435 -0.22761 0
M  V30 14 C 1.28313 2.09466 -0.113884 0
M  V30 15 O 1.04892 3.36551 -0.0276157 0
M  V30 16 C -0.217355 3.60987 0.0661793 0
M  V30 17 C -0.941517 2.38395 0.0431764 0
M  V30 18 C 0.0340297 1.42444 -0.0733806 0
M  V30 19 C 0.0151956 0.0641917 -0.148774 0
M  V30 20 C -1.17159 -0.75264 -0.128171 0
M  V30 21 C -1.63504 -1.304 1.07503 0
M  V30 22 C -2.68154 -2.17317 1.08721 0
M  V30 23 C -3.35294 -2.56635 -0.0881743 0
M  V30 24 C -2.90531 -2.0315 -1.2621 0
M  V30 25 C -1.848 -1.15584 -1.2604 0
M  V30 26 N -4.44875 -3.46103 0.0324832 0
M  V30 27 C -5.00176 -4.21308 -0.988232 0
M  V30 28 O -4.59253 -4.20488 -2.16615 0
M  V30 29 C -6.17972 -5.1302 -0.74803 0
M  V30 30 C -2.36798 2.29606 0.137458 0
M  V30 31 O -3.17758 1.38994 0.140404 0
M  V30 32 O -3.06405 3.55742 0.261212 0
M  V30 33 C -4.49598 3.50725 0.360573 0
M  V30 34 C -5.00702 4.9102 0.478646 0
M  V30 35 C -4.4768 5.63929 1.68524 0
M  V30 36 N -0.845038 4.87276 0.176955 0
M  V30 37 H 9.38313 -1.26003 -0.658069 0
M  V30 38 H 9.53306 -2.15077 0.872624 0
M  V30 39 H 9.53586 -0.331193 0.934076 0
M  V30 40 H 7.25902 -0.236858 0.766092 0
M  V30 41 H 7.3938 -1.89317 1.46996 0
M  V30 42 H 7.40816 -1.19809 -1.54181 0
M  V30 43 H 7.47001 -2.8456 -0.842953 0
M  V30 44 H 4.13105 -3.72245 0.028798 0
M  V30 45 H 2.95549 -4.13913 -1.23428 0
M  V30 46 H 3.38615 1.87142 -0.25792 0
M  V30 47 H -1.16046 -1.03938 1.9985 0
M  V30 48 H -3.04066 -2.60044 2.01668 0
M  V30 49 H -3.39635 -2.28658 -2.2215 0
M  V30 50 H -1.53696 -0.765198 -2.22304 0
M  V30 51 H -4.901 -3.57368 0.994647 0
M  V30 52 H -6.69254 -5.34825 -1.70296 0
M  V30 53 H -5.79333 -6.08495 -0.350433 0
M  V30 54 H -6.88161 -4.66228 -0.0136016 0
M  V30 55 H -4.9397 3.04775 -0.537226 0
M  V30 56 H -4.71369 2.94241 1.28671 0
M  V30 57 H -6.12566 4.90875 0.540865 0
M  V30 58 H -4.72886 5.44561 -0.454918 0
M  V30 59 H -5.1846 6.45983 1.98136 0
M  V30 60 H -4.37534 4.92834 2.53098 0
M  V30 61 H -3.48237 6.08961 1.40895 0
M  V30 62 H -0.884693 5.54771 -0.609994 0
M  V30 63 H -1.28773 5.14296 1.08243 0
M  V30 END ATOM
M  V30 BEGIN BOND
M  V30 1 1 1 2
M  V30 2 1 2 3
M  V30 3 1 3 4
M  V30 4 1 4 5
M  V30 5 2 5 6
M  V30 6 1 5 7
M  V30 7 2 7 8
M  V30 8 1 8 9
M  V30 9 1 8 10
M  V30 10 1 10 11
M  V30 11 2 11 12
M  V30 12 1 12 13
M  V30 13 2 13 14
M  V30 14 1 14 15
M  V30 15 1 15 16
M  V30 16 2 16 17
M  V30 17 1 17 18
M  V30 18 2 18 19
M  V30 19 1 19 20
M  V30 20 2 20 21
M  V30 21 1 21 22
M  V30 22 2 22 23
M  V30 23 1 23 24
M  V30 24 2 24 25
M  V30 25 1 23 26
M  V30 26 1 26 27
M  V30 27 2 27 28
M  V30 28 1 27 29
M  V30 29 1 17 30
M  V30 30 2 30 31
M  V30 31 1 30 32
M  V30 32 1 32 33
M  V30 33 1 33 34
M  V30 34 1 34 35
M  V30 35 1 16 36
M  V30 36 1 12 7
M  V30 37 1 18 14
M  V30 38 1 25 20
M  V30 39 1 19 11
M  V30 40 1 1 37
M  V30 41 1 1 38
M  V30 42 1 1 39
M  V30 43 1 2 40
M  V30 44 1 2 41
M  V30 45 1 3 42
M  V30 46 1 3 43
M  V30 47 1 9 44
M  V30 48 1 9 45
M  V30 49 1 13 46
M  V30 50 1 21 47
M  V30 51 1 22 48
M  V30 52 1 24 49
M  V30 53 1 25 50
M  V30 54 1 26 51
M  V30 55 1 29 52
M  V30 56 1 29 53
M  V30 57 1 29 54
M  V30 58 1 33 55
M  V30 59 1 33 56
M  V30 60 1 34 57
M  V30 61 1 34 58
M  V30 62 1 35 59
M  V30 63 1 35 60
M  V30 64 1 35 61
M  V30 65 1 36 62
M  V30 66 1 36 63
M  V30 END BOND
M  V30 END CTAB
M  END
