
     RDKit          3D

  0  0  0  0  0  0  0  0  0  0999 V3000
M  V30 BEGIN CTAB
M  V30 COUNTS 27 27 0 0 0
M  V30 BEGIN ATOM
M  V30 1 C -3.25042 1.81977 -0.138531 0
M  V30 2 C -2.46429 0.648703 0.333556 0
M  V30 3 C -1.12153 0.552305 0.0412002 0
M  V30 4 C -0.417889 -0.542601 0.491033 0
M  V30 5 C 1.01818 -0.692388 0.203435 0
M  V30 6 C 1.48511 0.524154 -0.568055 0
M  V30 7 C 2.97535 0.390087 -0.880477 0
M  V30 8 N 3.65299 0.293349 0.41888 0
M  V30 9 F 1.32817 -1.85663 -0.447007 0
M  V30 10 C -1.017 -1.56253 1.23513 0
M  V30 11 N -2.32625 -1.43176 1.49889 0
M  V30 12 C -3.0359 -0.369848 1.06971 0
M  V30 13 N -0.237047 -2.66182 1.66756 0
M  V30 14 H -2.70358 2.77224 0.117425 0
M  V30 15 H -3.37424 1.83861 -1.23441 0
M  V30 16 H -4.25767 1.83745 0.302021 0
M  V30 17 H -0.644465 1.35043 -0.544507 0
M  V30 18 H 1.62168 -0.688436 1.15917 0
M  V30 19 H 0.973361 0.621112 -1.54381 0
M  V30 20 H 1.29291 1.42068 0.0589207 0
M  V30 21 H 3.37132 1.31002 -1.35034 0
M  V30 22 H 3.12251 -0.520232 -1.48831 0
M  V30 23 H 4.68915 0.253364 0.293607 0
M  V30 24 H 3.3671 1.18278 0.925505 0
M  V30 25 H -4.10363 -0.252822 1.27898 0
M  V30 26 H -0.571838 -3.63163 1.39754 0
M  V30 27 H 0.627928 -2.60436 2.22169 0
M  V30 END ATOM
M  V30 BEGIN BOND
M  V30 1 1 1 2
M  V30 2 2 2 3
M  V30 3 1 3 4
M  V30 4 1 4 5
M  V30 5 1 5 6
M  V30 6 1 6 7
M  V30 7 1 7 8
M  V30 8 1 5 9
M  V30 9 2 4 10
M  V30 10 1 10 11
M  V30 11 2 11 12
M  V30 12 1 10 13
M  V30 13 1 12 2
M  V30 14 1 1 14
M  V30 15 1 1 15
M  V30 16 1 1 16
M  V30 17 1 3 17
M  V30 18 1 5 18
M  V30 19 1 6 19
M  V30 20 1 6 20
M  V30 21 1 7 21
M  V30 22 1 7 22
M  V30 23 1 8 23
M  V30 24 1 8 24
M  V30 25 1 12 25
M  V30 26 1 13 26
M  V30 27 1 13 27
M  V30 END BOND
M  V30 END CTAB
M  END
