
     RDKit          3D

  0  0  0  0  0  0  0  0  0  0999 V3000
M  V30 BEGIN CTAB
M  V30 COUNTS 46 48 0 0 0
M  V30 BEGIN ATOM
M  V30 1 N 1.79799 2.66901 -1.1753 0
M  V30 2 C 2.11675 1.36019 -0.722402 0
M  V30 3 N 1.18152 0.42273 -0.506026 0
M  V30 4 C 1.42387 -0.82773 -0.0791004 0
M  V30 5 N 0.411349 -1.79938 0.141298 0
M  V30 6 C -0.986458 -1.58258 -0.0444397 0
M  V30 7 C -1.51388 -0.538843 0.903187 0
M  V30 8 C -2.9724 -0.406899 0.617347 0
M  V30 9 C -3.91467 -1.17444 1.26642 0
M  V30 10 C -5.25481 -1.03285 0.983856 0
M  V30 11 C -5.72651 -0.13213 0.0525002 0
M  V30 12 C -4.77044 0.6278 -0.587647 0
M  V30 13 C -3.42293 0.499639 -0.317416 0
M  V30 14 S -7.41868 0.0683422 -0.325486 0
M  V30 15 O -7.53257 0.545249 -1.74562 0
M  V30 16 O -8.20241 -1.18199 -0.121573 0
M  V30 17 N -8.03499 1.28746 0.752895 0
M  V30 18 C 2.77205 -1.12112 0.140942 0
M  V30 19 C 3.7654 -0.191258 -0.0675804 0
M  V30 20 N 3.42084 1.02254 -0.492132 0
M  V30 21 C 5.17205 -0.575773 0.187377 0
M  V30 22 C 6.06389 -0.341755 -0.997507 0
M  V30 23 O 6.58551 0.94846 -0.822937 0
M  V30 24 C 6.81437 1.09375 0.528976 0
M  V30 25 C 5.71863 0.381585 1.2544 0
M  V30 26 H 1.60885 2.89549 -2.17539 0
M  V30 27 H 1.75531 3.42635 -0.462033 0
M  V30 28 H 0.743877 -2.75006 0.468171 0
M  V30 29 H -1.57901 -2.50975 0.150445 0
M  V30 30 H -1.18119 -1.23617 -1.08188 0
M  V30 31 H -1.3635 -0.840719 1.96259 0
M  V30 32 H -1.03602 0.438692 0.749894 0
M  V30 33 H -3.56222 -1.8991 2.01281 0
M  V30 34 H -5.97696 -1.64571 1.50537 0
M  V30 35 H -5.12596 1.34288 -1.32501 0
M  V30 36 H -2.68081 1.11918 -0.843332 0
M  V30 37 H -7.538 2.19826 0.590544 0
M  V30 38 H -7.81335 1.0082 1.72953 0
M  V30 39 H 2.99189 -2.11512 0.482847 0
M  V30 40 H 5.24591 -1.6073 0.527981 0
M  V30 41 H 6.89027 -1.10553 -0.9447 0
M  V30 42 H 5.55567 -0.403842 -1.96708 0
M  V30 43 H 7.77964 0.669517 0.870581 0
M  V30 44 H 6.79443 2.16769 0.823327 0
M  V30 45 H 4.92347 1.05581 1.63418 0
M  V30 46 H 6.07424 -0.22877 2.11064 0
M  V30 END ATOM
M  V30 BEGIN BOND
M  V30 1 1 1 2
M  V30 2 2 2 3
M  V30 3 1 3 4
M  V30 4 1 4 5
M  V30 5 1 5 6
M  V30 6 1 6 7
M  V30 7 1 7 8
M  V30 8 2 8 9
M  V30 9 1 9 10
M  V30 10 2 10 11
M  V30 11 1 11 12
M  V30 12 2 12 13
M  V30 13 1 11 14
M  V30 14 2 14 15
M  V30 15 2 14 16
M  V30 16 1 14 17
M  V30 17 2 4 18
M  V30 18 1 18 19
M  V30 19 2 19 20
M  V30 20 1 19 21
M  V30 21 1 21 22
M  V30 22 1 22 23
M  V30 23 1 23 24
M  V30 24 1 24 25
M  V30 25 1 20 2
M  V30 26 1 25 21
M  V30 27 1 13 8
M  V30 28 1 1 26
M  V30 29 1 1 27
M  V30 30 1 5 28
M  V30 31 1 6 29
M  V30 32 1 6 30
M  V30 33 1 7 31
M  V30 34 1 7 32
M  V30 35 1 9 33
M  V30 36 1 10 34
M  V30 37 1 12 35
M  V30 38 1 13 36
M  V30 39 1 17 37
M  V30 40 1 17 38
M  V30 41 1 18 39
M  V30 42 1 21 40
M  V30 43 1 22 41
M  V30 44 1 22 42
M  V30 45 1 24 43
M  V30 46 1 24 44
M  V30 47 1 25 45
M  V30 48 1 25 46
M  V30 END BOND
M  V30 END CTAB
M  END
