
     RDKit          3D

  0  0  0  0  0  0  0  0  0  0999 V3000
M  V30 BEGIN CTAB
M  V30 COUNTS 64 67 0 0 0
M  V30 BEGIN ATOM
M  V30 1 C 7.64388 0.499103 1.03202 0
M  V30 2 C 7.47847 0.775236 -0.440939 0
M  V30 3 C 6.05445 1.14236 -0.750137 0
M  V30 4 C 5.13876 0.0134781 -0.364524 0
M  V30 5 C 3.68084 0.353745 -0.666298 0 CFG=1
M  V30 6 C 2.83136 -0.758845 -0.282048 0
M  V30 7 O 3.00482 -1.82901 -1.01171 0
M  V30 8 N 1.8791 -0.874294 0.715633 0
M  V30 9 C 1.45174 0.0627738 1.72356 0
M  V30 10 C 0.100902 0.584713 1.27429 0
M  V30 11 C -0.855768 -0.587204 1.00193 0
M  V30 12 C -0.234811 -1.86399 1.48335 0
M  V30 13 C 1.09272 -2.15687 0.82109 0
M  V30 14 O -2.0177 -0.259885 1.6503 0
M  V30 15 C -3.02936 -1.15904 1.45314 0
M  V30 16 C -3.42941 -1.40846 0.0406022 0 CFG=2
M  V30 17 C -2.27381 -1.41889 -0.897899 0 CFG=2
M  V30 18 C -1.10514 -0.586929 -0.473178 0
M  V30 19 C -2.64804 -0.935006 -2.30737 0
M  V30 20 O -1.79377 -2.73549 -1.09282 0
M  V30 21 N -4.50031 -0.559207 -0.431849 0
M  V30 22 C -5.37747 -0.905764 -1.39637 0
M  V30 23 N -6.22763 0.127375 -1.5728 0
M  V30 24 C -5.91008 1.12774 -0.738917 0
M  V30 25 C -4.82111 0.681628 -0.0269546 0
M  V30 26 N -4.31392 1.52133 0.885087 0
M  V30 27 C -4.78971 2.74766 1.14556 0
M  V30 28 N -5.85971 3.19734 0.452269 0
M  V30 29 C -6.4121 2.38198 -0.486088 0
M  V30 30 N -7.53683 2.8094 -1.2399 0
M  V30 31 N 3.35016 1.58808 -0.0227539 0
M  V30 32 H 8.68404 0.623491 1.38312 0
M  V30 33 H 7.27026 -0.520649 1.23487 0
M  V30 34 H 7.03365 1.2686 1.58427 0
M  V30 35 H 7.74667 -0.109797 -1.05972 0
M  V30 36 H 8.17003 1.59579 -0.725161 0
M  V30 37 H 5.98902 1.38793 -1.83128 0
M  V30 38 H 5.80666 2.05071 -0.174545 0
M  V30 39 H 5.28825 -0.175119 0.722381 0
M  V30 40 H 5.45684 -0.892265 -0.914546 0
M  V30 41 H 3.63379 0.456918 -1.78842 0
M  V30 42 H 1.33101 -0.457304 2.71842 0
M  V30 43 H 2.11484 0.879998 1.88312 0
M  V30 44 H 0.263539 1.20123 0.37207 0
M  V30 45 H -0.264528 1.23731 2.0849 0
M  V30 46 H -0.118479 -1.86675 2.57312 0
M  V30 47 H -0.874475 -2.75952 1.21743 0
M  V30 48 H 0.958252 -2.56497 -0.194388 0
M  V30 49 H 1.66914 -2.82242 1.49106 0
M  V30 50 H -2.67597 -2.14426 1.87997 0
M  V30 51 H -3.92676 -0.940582 2.08576 0
M  V30 52 H -3.85902 -2.45789 0.0147327 0
M  V30 53 H -0.214605 -0.980939 -0.988798 0
M  V30 54 H -1.19963 0.489258 -0.79724 0
M  V30 55 H -3.05965 0.0806513 -2.29645 0
M  V30 56 H -1.65166 -0.845821 -2.83393 0
M  V30 57 H -3.21299 -1.67686 -2.86644 0
M  V30 58 H -2.55028 -3.35148 -1.30207 0
M  V30 59 H -5.42622 -1.85031 -1.96201 0
M  V30 60 H -4.37162 3.4181 1.88533 0
M  V30 61 H -7.5492 3.79142 -1.58165 0
M  V30 62 H -8.34128 2.1994 -1.46663 0
M  V30 63 H 4.00904 1.8111 0.749562 0
M  V30 64 H 3.30082 2.35004 -0.751755 0
M  V30 END ATOM
M  V30 BEGIN BOND
M  V30 1 1 1 2
M  V30 2 1 2 3
M  V30 3 1 3 4
M  V30 4 1 4 5
M  V30 5 1 5 6
M  V30 6 2 6 7
M  V30 7 1 6 8
M  V30 8 1 8 9
M  V30 9 1 9 10
M  V30 10 1 10 11
M  V30 11 1 11 12
M  V30 12 1 12 13
M  V30 13 1 11 14
M  V30 14 1 14 15
M  V30 15 1 15 16
M  V30 16 1 16 17
M  V30 17 1 17 18
M  V30 18 1 17 19
M  V30 19 1 17 20 CFG=3
M  V30 20 1 16 21
M  V30 21 1 21 22
M  V30 22 2 22 23
M  V30 23 1 23 24
M  V30 24 2 24 25
M  V30 25 1 25 26
M  V30 26 2 26 27
M  V30 27 1 27 28
M  V30 28 2 28 29
M  V30 29 1 29 30
M  V30 30 1 5 31
M  V30 31 1 13 8
M  V30 32 1 25 21
M  V30 33 1 18 11
M  V30 34 1 29 24
M  V30 35 1 1 32
M  V30 36 1 1 33
M  V30 37 1 1 34
M  V30 38 1 2 35
M  V30 39 1 2 36
M  V30 40 1 3 37
M  V30 41 1 3 38
M  V30 42 1 4 39
M  V30 43 1 4 40
M  V30 44 1 5 41 CFG=3
M  V30 45 1 9 42
M  V30 46 1 9 43
M  V30 47 1 10 44
M  V30 48 1 10 45
M  V30 49 1 12 46
M  V30 50 1 12 47
M  V30 51 1 13 48
M  V30 52 1 13 49
M  V30 53 1 15 50
M  V30 54 1 15 51
M  V30 55 1 16 52 CFG=1
M  V30 56 1 18 53
M  V30 57 1 18 54
M  V30 58 1 19 55
M  V30 59 1 19 56
M  V30 60 1 19 57
M  V30 61 1 20 58
M  V30 62 1 22 59
M  V30 63 1 27 60
M  V30 64 1 30 61
M  V30 65 1 30 62
M  V30 66 1 31 63
M  V30 67 1 31 64
M  V30 END BOND
M  V30 END CTAB
M  END
