
     RDKit          3D

  0  0  0  0  0  0  0  0  0  0999 V3000
M  V30 BEGIN CTAB
M  V30 COUNTS 44 45 0 0 0
M  V30 BEGIN ATOM
M  V30 1 N -5.8949 -1.04484 1.64723 0
M  V30 2 C -4.89517 -1.96612 1.18588 0
M  V30 3 C -3.59749 -1.22223 0.956955 0
M  V30 4 O -3.74385 -0.200905 -0.00877327 0
M  V30 5 C -2.64878 0.581864 -0.341047 0
M  V30 6 C -1.43211 0.380512 0.250667 0
M  V30 7 C -0.268767 1.14721 -0.0440868 0
M  V30 8 C -0.411722 2.13479 -0.977991 0
M  V30 9 C -1.64983 2.35169 -1.59112 0
M  V30 10 C -2.73994 1.58974 -1.27606 0
M  V30 11 C -4.03078 1.84952 -1.94553 0
M  V30 12 C 0.919177 0.801148 0.681231 0
M  V30 13 O 0.755624 -0.158073 1.56654 0
M  V30 14 N 2.19732 1.33151 0.577456 0
M  V30 15 C 3.20785 0.721428 1.5194 0
M  V30 16 C 3.80697 -0.411999 0.797374 0
M  V30 17 C 3.43004 -0.787887 -0.471737 0
M  V30 18 N 3.99333 -1.83992 -1.13041 0
M  V30 19 C 4.95391 -2.51218 -0.47734 0
M  V30 20 N 5.34563 -2.16488 0.77299 0
M  V30 21 C 4.80302 -1.13416 1.43485 0
M  V30 22 N 5.54078 -3.6034 -1.1559 0
M  V30 23 C 2.69367 2.35292 -0.273996 0
M  V30 24 H -6.32703 -0.496738 0.87308 0
M  V30 25 H -6.69826 -1.57705 2.09745 0
M  V30 26 H -5.16821 -2.47197 0.22864 0
M  V30 27 H -4.72611 -2.76692 1.9295 0
M  V30 28 H -2.86508 -1.95581 0.553904 0
M  V30 29 H -3.17829 -0.825297 1.89748 0
M  V30 30 H -1.39743 -0.425213 0.983947 0
M  V30 31 H 0.413745 2.7527 -1.24465 0
M  V30 32 H -1.67455 3.1546 -2.31982 0
M  V30 33 H -4.77844 2.22413 -1.22927 0
M  V30 34 H -3.91345 2.53139 -2.8051 0
M  V30 35 H -4.45462 0.898237 -2.36316 0
M  V30 36 H 3.89068 1.52503 1.7879 0
M  V30 37 H 2.69299 0.37194 2.41533 0
M  V30 38 H 2.64836 -0.2469 -1.01165 0
M  V30 39 H 5.10999 -0.85208 2.43038 0
M  V30 40 H 5.74666 -3.52135 -2.16328 0
M  V30 41 H 5.7554 -4.46732 -0.634659 0
M  V30 42 H 2.22951 3.32685 -0.0305245 0
M  V30 43 H 2.55466 2.09596 -1.33944 0
M  V30 44 H 3.80547 2.53008 -0.0914228 0
M  V30 END ATOM
M  V30 BEGIN BOND
M  V30 1 1 1 2
M  V30 2 1 2 3
M  V30 3 1 3 4
M  V30 4 1 4 5
M  V30 5 2 5 6
M  V30 6 1 6 7
M  V30 7 2 7 8
M  V30 8 1 8 9
M  V30 9 2 9 10
M  V30 10 1 10 11
M  V30 11 1 7 12
M  V30 12 2 12 13
M  V30 13 1 12 14
M  V30 14 1 14 15
M  V30 15 1 15 16
M  V30 16 2 16 17
M  V30 17 1 17 18
M  V30 18 2 18 19
M  V30 19 1 19 20
M  V30 20 2 20 21
M  V30 21 1 19 22
M  V30 22 1 14 23
M  V30 23 1 10 5
M  V30 24 1 21 16
M  V30 25 1 1 24
M  V30 26 1 1 25
M  V30 27 1 2 26
M  V30 28 1 2 27
M  V30 29 1 3 28
M  V30 30 1 3 29
M  V30 31 1 6 30
M  V30 32 1 8 31
M  V30 33 1 9 32
M  V30 34 1 11 33
M  V30 35 1 11 34
M  V30 36 1 11 35
M  V30 37 1 15 36
M  V30 38 1 15 37
M  V30 39 1 17 38
M  V30 40 1 21 39
M  V30 41 1 22 40
M  V30 42 1 22 41
M  V30 43 1 23 42
M  V30 44 1 23 43
M  V30 45 1 23 44
M  V30 END BOND
M  V30 END CTAB
M  END
