
     RDKit          3D

  0  0  0  0  0  0  0  0  0  0999 V3000
M  V30 BEGIN CTAB
M  V30 COUNTS 43 44 0 0 0
M  V30 BEGIN ATOM
M  V30 1 N 3.20349 0.532047 3.49078 0
M  V30 2 C 3.44176 0.361762 2.09255 0
M  V30 3 N 2.57375 -0.337979 1.332 0
M  V30 4 C 2.74819 -0.530208 0.00816846 0
M  V30 5 C 1.75956 -1.30083 -0.741434 0
M  V30 6 N 0.775945 -0.54978 -1.44813 0
M  V30 7 C -0.118974 -1.39989 -2.12428 0
M  V30 8 C -1.53248 -1.4089 -1.63876 0
M  V30 9 C -2.22733 -0.0935451 -1.77251 0
M  V30 10 C -2.22828 0.565318 -0.439447 0
M  V30 11 C -0.840296 0.403626 0.145252 0
M  V30 12 C 0.271125 0.607683 -0.810242 0
M  V30 13 C -3.18798 -0.0379099 0.545881 0
M  V30 14 C -3.04767 0.766299 1.84644 0
M  V30 15 C -4.60599 -0.0238411 0.146093 0
M  V30 16 N 3.83595 0.00338589 -0.561731 0
M  V30 17 C 4.74186 0.713675 0.143346 0
M  V30 18 N 4.51574 0.874229 1.46607 0
M  V30 19 N 5.90343 1.27689 -0.493503 0
M  V30 20 H 2.40296 1.10401 3.82719 0
M  V30 21 H 3.86821 0.0571814 4.13822 0
M  V30 22 H 1.22595 -2.03544 -0.0808465 0
M  V30 23 H 2.29512 -1.93849 -1.50185 0
M  V30 24 H 0.263468 -2.44129 -2.09867 0
M  V30 25 H -0.139917 -1.11237 -3.20522 0
M  V30 26 H -2.09034 -2.1328 -2.30571 0
M  V30 27 H -1.60228 -1.85938 -0.626827 0
M  V30 28 H -3.22119 -0.160707 -2.25281 0
M  V30 29 H -1.61436 0.540195 -2.46245 0
M  V30 30 H -2.4072 1.65247 -0.597173 0
M  V30 31 H -0.774631 1.17926 0.96434 0
M  V30 32 H -0.730565 -0.568119 0.687633 0
M  V30 33 H 1.11622 1.07005 -0.253437 0
M  V30 34 H -0.0267629 1.41783 -1.54216 0
M  V30 35 H -2.88845 -1.07153 0.816694 0
M  V30 36 H -2.87905 1.83112 1.64699 0
M  V30 37 H -2.29408 0.304595 2.50994 0
M  V30 38 H -4.0313 0.694414 2.3823 0
M  V30 39 H -5.14213 0.870016 0.555894 0
M  V30 40 H -5.16297 -0.902685 0.583705 0
M  V30 41 H -4.80914 -0.0467194 -0.931365 0
M  V30 42 H 5.94489 2.26782 -0.793955 0
M  V30 43 H 6.71578 0.650415 -0.646979 0
M  V30 END ATOM
M  V30 BEGIN BOND
M  V30 1 1 1 2
M  V30 2 2 2 3
M  V30 3 1 3 4
M  V30 4 1 4 5
M  V30 5 1 5 6
M  V30 6 1 6 7
M  V30 7 1 7 8
M  V30 8 1 8 9
M  V30 9 1 9 10
M  V30 10 1 10 11
M  V30 11 1 11 12
M  V30 12 1 10 13
M  V30 13 1 13 14
M  V30 14 1 13 15
M  V30 15 2 4 16
M  V30 16 1 16 17
M  V30 17 2 17 18
M  V30 18 1 17 19
M  V30 19 1 18 2
M  V30 20 1 12 6
M  V30 21 1 1 20
M  V30 22 1 1 21
M  V30 23 1 5 22
M  V30 24 1 5 23
M  V30 25 1 7 24
M  V30 26 1 7 25
M  V30 27 1 8 26
M  V30 28 1 8 27
M  V30 29 1 9 28
M  V30 30 1 9 29
M  V30 31 1 10 30
M  V30 32 1 11 31
M  V30 33 1 11 32
M  V30 34 1 12 33
M  V30 35 1 12 34
M  V30 36 1 13 35
M  V30 37 1 14 36
M  V30 38 1 14 37
M  V30 39 1 14 38
M  V30 40 1 15 39
M  V30 41 1 15 40
M  V30 42 1 15 41
M  V30 43 1 19 42
M  V30 44 1 19 43
M  V30 END BOND
M  V30 END CTAB
M  END
