
     RDKit          3D

  0  0  0  0  0  0  0  0  0  0999 V3000
M  V30 BEGIN CTAB
M  V30 COUNTS 44 46 0 0 0
M  V30 BEGIN ATOM
M  V30 1 C -1.89614 -2.59637 1.20224 0
M  V30 2 O -3.21592 -2.29485 0.791871 0
M  V30 3 C -3.51031 -0.968276 0.501705 0
M  V30 4 C -2.54345 0.035291 0.609308 0
M  V30 5 C -2.81605 1.3491 0.326976 0
M  V30 6 C -1.73189 2.37792 0.460169 0
M  V30 7 N -0.446976 1.80628 0.728247 0
M  V30 8 C 0.2909 1.19118 -0.303371 0
M  V30 9 O -0.18052 1.14439 -1.46033 0
M  V30 10 C 1.62012 0.598605 -0.0340216 0
M  V30 11 S 2.48374 0.528272 1.44226 0
M  V30 12 C 3.87706 -0.290282 0.905754 0
M  V30 13 C 3.62428 -0.486385 -0.423007 0
M  V30 14 C 2.46107 -0.0281941 -0.907119 0
M  V30 15 N 2.04875 -0.160303 -2.29778 0
M  V30 16 C 4.66067 -1.162 -1.09995 0
M  V30 17 C 5.78761 -1.56453 -0.461341 0
M  V30 18 C 5.99099 -1.33901 0.88824 0
M  V30 19 N 5.01231 -0.69671 1.54534 0
M  V30 20 N 7.20038 -1.79819 1.45972 0
M  V30 21 C 6.80777 -2.25763 -1.24482 0
M  V30 22 N 7.62987 -2.81152 -1.8497 0
M  V30 23 C -4.08418 1.69471 -0.0763174 0
M  V30 24 C -5.06931 0.736623 -0.196084 0
M  V30 25 C -4.7719 -0.577045 0.0930079 0
M  V30 26 O -6.35081 1.11604 -0.608391 0
M  V30 27 C -6.6637 2.46503 -0.907101 0
M  V30 28 H -1.60368 -2.01968 2.11208 0
M  V30 29 H -1.20138 -2.2758 0.400617 0
M  V30 30 H -1.78569 -3.67376 1.39322 0
M  V30 31 H -1.57177 -0.260552 0.925003 0
M  V30 32 H -1.7308 3.05779 -0.417152 0
M  V30 33 H -2.02359 3.01608 1.33083 0
M  V30 34 H -0.0417952 1.83616 1.68242 0
M  V30 35 H 2.58628 0.418111 -2.97108 0
M  V30 36 H 1.29276 -0.767525 -2.61352 0
M  V30 37 H 4.58346 -1.38301 -2.1729 0
M  V30 38 H 7.99083 -1.11617 1.57117 0
M  V30 39 H 7.3053 -2.77468 1.75915 0
M  V30 40 H -4.27782 2.74904 -0.296026 0
M  V30 41 H -5.54876 -1.32404 -0.00277717 0
M  V30 42 H -7.7496 2.64324 -0.942761 0
M  V30 43 H -6.2728 3.07858 -0.0482673 0
M  V30 44 H -6.16532 2.78406 -1.83936 0
M  V30 END ATOM
M  V30 BEGIN BOND
M  V30 1 1 1 2
M  V30 2 1 2 3
M  V30 3 2 3 4
M  V30 4 1 4 5
M  V30 5 1 5 6
M  V30 6 1 6 7
M  V30 7 1 7 8
M  V30 8 2 8 9
M  V30 9 1 8 10
M  V30 10 1 10 11
M  V30 11 1 11 12
M  V30 12 2 12 13
M  V30 13 1 13 14
M  V30 14 1 14 15
M  V30 15 1 13 16
M  V30 16 2 16 17
M  V30 17 1 17 18
M  V30 18 2 18 19
M  V30 19 1 18 20
M  V30 20 1 17 21
M  V30 21 3 21 22
M  V30 22 2 5 23
M  V30 23 1 23 24
M  V30 24 2 24 25
M  V30 25 1 24 26
M  V30 26 1 26 27
M  V30 27 1 25 3
M  V30 28 2 14 10
M  V30 29 1 19 12
M  V30 30 1 1 28
M  V30 31 1 1 29
M  V30 32 1 1 30
M  V30 33 1 4 31
M  V30 34 1 6 32
M  V30 35 1 6 33
M  V30 36 1 7 34
M  V30 37 1 15 35
M  V30 38 1 15 36
M  V30 39 1 16 37
M  V30 40 1 20 38
M  V30 41 1 20 39
M  V30 42 1 23 40
M  V30 43 1 25 41
M  V30 44 1 27 42
M  V30 45 1 27 43
M  V30 46 1 27 44
M  V30 END BOND
M  V30 END CTAB
M  END
