
     RDKit          3D

  0  0  0  0  0  0  0  0  0  0999 V3000
M  V30 BEGIN CTAB
M  V30 COUNTS 42 45 0 0 0
M  V30 BEGIN ATOM
M  V30 1 N -6.97265 1.01593 -0.413747 0
M  V30 2 C -5.66473 1.42055 -0.84941 0
M  V30 3 C -4.77462 0.275615 -1.34008 0
M  V30 4 C -3.60895 1.03097 -0.687203 0
M  V30 5 C -4.65091 1.59094 0.290618 0
M  V30 6 C -2.59865 0.178726 -0.0760608 0
M  V30 7 C -1.26906 0.358934 -0.37692 0
M  V30 8 C -0.281834 -0.448112 0.198418 0
M  V30 9 N 1.08916 -0.270736 -0.104643 0
M  V30 10 C 2.06237 -1.13481 0.520664 0
M  V30 11 C 3.44484 -0.811565 0.0926299 0
M  V30 12 C 3.99237 -1.42658 -1.0105 0
M  V30 13 C 5.28794 -1.11576 -1.40172 0
M  V30 14 C 6.0315 -0.20196 -0.702228 0
M  V30 15 C 5.48685 0.411615 0.397363 0
M  V30 16 C 4.21692 0.10184 0.774425 0
M  V30 17 O 6.48005 1.27878 0.887642 0
M  V30 18 C 7.4086 1.47425 -0.161322 0
M  V30 19 O 7.31867 0.274002 -0.880884 0
M  V30 20 N -0.692977 -1.40034 1.05253 0
M  V30 21 C -2.00365 -1.59268 1.36158 0
M  V30 22 N -2.92657 -0.793284 0.785586 0
M  V30 23 N -2.32249 -2.62055 2.26963 0
M  V30 24 H -7.62338 1.82954 -0.610452 0
M  V30 25 H -7.37376 0.225852 -0.999108 0
M  V30 26 H -5.6159 2.3226 -1.48174 0
M  V30 27 H -4.70863 0.168283 -2.4205 0
M  V30 28 H -5.01682 -0.624803 -0.744848 0
M  V30 29 H -3.2624 1.79873 -1.37742 0
M  V30 30 H -4.47211 2.62264 0.589912 0
M  V30 31 H -4.89522 0.866258 1.0867 0
M  V30 32 H -0.952688 1.13351 -1.06967 0
M  V30 33 H 1.44202 0.450407 -0.756099 0
M  V30 34 H 1.82069 -2.21853 0.369947 0
M  V30 35 H 2.04888 -1.00201 1.6397 0
M  V30 36 H 3.4331 -2.15377 -1.58674 0
M  V30 37 H 5.66984 -1.62927 -2.27738 0
M  V30 38 H 3.78893 0.591531 1.64797 0
M  V30 39 H 7.11305 2.35636 -0.751303 0
M  V30 40 H 8.43152 1.66226 0.228546 0
M  V30 41 H -1.71212 -3.44959 2.34852 0
M  V30 42 H -3.16719 -2.54579 2.85734 0
M  V30 END ATOM
M  V30 BEGIN BOND
M  V30 1 1 1 2
M  V30 2 1 2 3
M  V30 3 1 3 4
M  V30 4 1 4 5
M  V30 5 1 4 6
M  V30 6 2 6 7
M  V30 7 1 7 8
M  V30 8 1 8 9
M  V30 9 1 9 10
M  V30 10 1 10 11
M  V30 11 2 11 12
M  V30 12 1 12 13
M  V30 13 2 13 14
M  V30 14 1 14 15
M  V30 15 2 15 16
M  V30 16 1 15 17
M  V30 17 1 17 18
M  V30 18 1 18 19
M  V30 19 2 8 20
M  V30 20 1 20 21
M  V30 21 2 21 22
M  V30 22 1 21 23
M  V30 23 1 5 2
M  V30 24 1 22 6
M  V30 25 1 16 11
M  V30 26 1 19 14
M  V30 27 1 1 24
M  V30 28 1 1 25
M  V30 29 1 2 26
M  V30 30 1 3 27
M  V30 31 1 3 28
M  V30 32 1 4 29
M  V30 33 1 5 30
M  V30 34 1 5 31
M  V30 35 1 7 32
M  V30 36 1 9 33
M  V30 37 1 10 34
M  V30 38 1 10 35
M  V30 39 1 12 36
M  V30 40 1 13 37
M  V30 41 1 16 38
M  V30 42 1 18 39
M  V30 43 1 18 40
M  V30 44 1 23 41
M  V30 45 1 23 42
M  V30 END BOND
M  V30 END CTAB
M  END
