
     RDKit          3D

  0  0  0  0  0  0  0  0  0  0999 V3000
M  V30 BEGIN CTAB
M  V30 COUNTS 47 48 0 0 0
M  V30 BEGIN ATOM
M  V30 1 N -5.18621 -0.316149 -1.84732 0
M  V30 2 C -4.04837 0.313604 -1.17125 0 CFG=2
M  V30 3 C -3.18329 -0.793369 -0.725108 0
M  V30 4 O -3.66906 -1.95434 -0.499555 0
M  V30 5 N -1.81267 -0.628527 -0.535123 0
M  V30 6 C -1.02336 -1.77915 -0.0540335 0
M  V30 7 C 0.147155 -1.20505 0.715166 0
M  V30 8 N 0.978677 -0.49781 -0.24187 0
M  V30 9 C 0.302479 0.141706 -1.35344 0
M  V30 10 C -1.07286 0.583598 -0.803049 0
M  V30 11 C 2.38998 -0.441097 -0.0674775 0
M  V30 12 C 3.00773 -0.864171 1.08874 0
M  V30 13 C 4.3995 -0.807115 1.23748 0
M  V30 14 C 5.21096 -0.325311 0.234086 0
M  V30 15 C 4.59722 0.0992779 -0.924669 0
M  V30 16 C 3.22499 0.0396626 -1.06348 0
M  V30 17 S 6.95526 -0.260001 0.435837 0
M  V30 18 O 7.43443 -1.3367 1.37127 0
M  V30 19 O 7.65336 -0.49224 -0.882967 0
M  V30 20 N 7.34979 1.26145 1.1138 0
M  V30 21 C -4.62636 1.1446 -0.0608052 0
M  V30 22 C -5.39669 0.272104 0.91554 0
M  V30 23 C -3.71499 2.09396 0.612291 0
M  V30 24 H -5.51223 0.288566 -2.61677 0
M  V30 25 H -4.97038 -1.24897 -2.19661 0
M  V30 26 H -3.51981 0.940619 -1.88756 0
M  V30 27 H -0.589395 -2.33877 -0.922303 0
M  V30 28 H -1.63467 -2.44957 0.57176 0
M  V30 29 H -0.221235 -0.521636 1.5155 0
M  V30 30 H 0.757177 -2.04483 1.15076 0
M  V30 31 H 0.827357 0.987321 -1.7902 0
M  V30 32 H 0.0790974 -0.644025 -2.10059 0
M  V30 33 H -1.56225 1.26272 -1.50843 0
M  V30 34 H -0.822312 1.04879 0.184334 0
M  V30 35 H 2.42703 -1.2476 1.91032 0
M  V30 36 H 4.88657 -1.13988 2.1468 0
M  V30 37 H 5.23909 0.479214 -1.71531 0
M  V30 38 H 2.7379 0.377796 -1.99154 0
M  V30 39 H 6.53822 1.68584 1.62536 0
M  V30 40 H 8.16953 1.14978 1.75132 0
M  V30 41 H -5.43188 1.7696 -0.565563 0
M  V30 42 H -5.86351 -0.543105 0.32976 0
M  V30 43 H -6.16769 0.912962 1.38799 0
M  V30 44 H -4.70519 -0.170948 1.67785 0
M  V30 45 H -3.18422 2.75096 -0.0819478 0
M  V30 46 H -3.0335 1.6504 1.36735 0
M  V30 47 H -4.36137 2.79582 1.23182 0
M  V30 END ATOM
M  V30 BEGIN BOND
M  V30 1 1 1 2
M  V30 2 1 2 3
M  V30 3 2 3 4
M  V30 4 1 3 5
M  V30 5 1 5 6
M  V30 6 1 6 7
M  V30 7 1 7 8
M  V30 8 1 8 9
M  V30 9 1 9 10
M  V30 10 1 8 11
M  V30 11 2 11 12
M  V30 12 1 12 13
M  V30 13 2 13 14
M  V30 14 1 14 15
M  V30 15 2 15 16
M  V30 16 1 14 17
M  V30 17 2 17 18
M  V30 18 2 17 19
M  V30 19 1 17 20
M  V30 20 1 2 21
M  V30 21 1 21 22
M  V30 22 1 21 23
M  V30 23 1 10 5
M  V30 24 1 16 11
M  V30 25 1 1 24
M  V30 26 1 1 25
M  V30 27 1 2 26 CFG=3
M  V30 28 1 6 27
M  V30 29 1 6 28
M  V30 30 1 7 29
M  V30 31 1 7 30
M  V30 32 1 9 31
M  V30 33 1 9 32
M  V30 34 1 10 33
M  V30 35 1 10 34
M  V30 36 1 12 35
M  V30 37 1 13 36
M  V30 38 1 15 37
M  V30 39 1 16 38
M  V30 40 1 20 39
M  V30 41 1 20 40
M  V30 42 1 21 41
M  V30 43 1 22 42
M  V30 44 1 22 43
M  V30 45 1 22 44
M  V30 46 1 23 45
M  V30 47 1 23 46
M  V30 48 1 23 47
M  V30 END BOND
M  V30 END CTAB
M  END
