
     RDKit          3D

  0  0  0  0  0  0  0  0  0  0999 V3000
M  V30 BEGIN CTAB
M  V30 COUNTS 21 21 0 0 0
M  V30 BEGIN ATOM
M  V30 1 F 3.18613 -2.086 0.455321 0
M  V30 2 C 2.70545 -0.995518 -0.235295 0
M  V30 3 O 1.83497 -0.265646 0.592031 0
M  V30 4 C 0.536359 0.0738628 0.305341 0
M  V30 5 C 0.269732 1.25671 -0.353956 0
M  V30 6 N 1.32867 2.13634 -0.743908 0
M  V30 7 C -1.02431 1.62674 -0.656824 0
M  V30 8 C -2.08989 0.819408 -0.306396 0
M  V30 9 C -1.84699 -0.364691 0.351843 0
M  V30 10 C -0.535907 -0.71989 0.648227 0
M  V30 11 O -0.371983 -1.93658 1.31919 0
M  V30 12 N -2.9188 -1.2165 0.725757 0
M  V30 13 F 3.76704 -0.192291 -0.675865 0
M  V30 14 H 2.22686 -1.34891 -1.17177 0
M  V30 15 H 1.28457 2.52072 -1.69752 0
M  V30 16 H 2.11487 2.39279 -0.119817 0
M  V30 17 H -1.26735 2.55268 -1.17566 0
M  V30 18 H -3.10981 1.11913 -0.549588 0
M  V30 19 H 0.530898 -2.28993 1.58839 0
M  V30 20 H -3.09712 -2.06871 0.157913 0
M  V30 21 H -3.52338 -1.01371 1.54258 0
M  V30 END ATOM
M  V30 BEGIN BOND
M  V30 1 1 1 2
M  V30 2 1 2 3
M  V30 3 1 3 4
M  V30 4 2 4 5
M  V30 5 1 5 6
M  V30 6 1 5 7
M  V30 7 2 7 8
M  V30 8 1 8 9
M  V30 9 2 9 10
M  V30 10 1 10 11
M  V30 11 1 9 12
M  V30 12 1 2 13
M  V30 13 1 10 4
M  V30 14 1 2 14
M  V30 15 1 6 15
M  V30 16 1 6 16
M  V30 17 1 7 17
M  V30 18 1 8 18
M  V30 19 1 11 19
M  V30 20 1 12 20
M  V30 21 1 12 21
M  V30 END BOND
M  V30 END CTAB
M  END
