
     RDKit          3D

  0  0  0  0  0  0  0  0  0  0999 V3000
M  V30 BEGIN CTAB
M  V30 COUNTS 31 32 0 0 0
M  V30 BEGIN ATOM
M  V30 1 N 4.5487 1.89254 -1.22511 0
M  V30 2 C 3.63389 0.889675 -0.840942 0
M  V30 3 C 2.28777 1.17003 -0.873109 0
M  V30 4 C 1.36936 0.190751 -0.496761 0
M  V30 5 C 1.74234 -1.05221 -0.090691 0
M  V30 6 N 0.875536 -2.09049 0.281017 0
M  V30 7 S -0.373473 -1.9675 1.4289 0
M  V30 8 O 0.214884 -1.54877 2.78021 0
M  V30 9 O -1.02786 -3.31336 1.65506 0
M  V30 10 C -1.62289 -0.836466 1.08087 0
M  V30 11 C -2.6233 -1.17263 0.176095 0
M  V30 12 C -3.6544 -0.34091 -0.124528 0
M  V30 13 C -3.70876 0.883604 0.492862 0
M  V30 14 N -4.79016 1.75121 0.174997 0
M  V30 15 C -2.75033 1.282 1.40062 0
M  V30 16 C -1.72181 0.419782 1.68301 0
M  V30 17 C 3.11103 -1.32452 -0.0626803 0
M  V30 18 C 4.04143 -0.377338 -0.42899 0
M  V30 19 H 5.00697 2.47606 -0.510242 0
M  V30 20 H 4.75099 2.03227 -2.22695 0
M  V30 21 H 1.97411 2.15068 -1.19204 0
M  V30 22 H 0.345713 0.450043 -0.552107 0
M  V30 23 H 1.00884 -3.02979 -0.192101 0
M  V30 24 H -2.58223 -2.15401 -0.320517 0
M  V30 25 H -4.39655 -0.652435 -0.829073 0
M  V30 26 H -4.68222 2.7868 0.137711 0
M  V30 27 H -5.76181 1.39917 -0.0410184 0
M  V30 28 H -2.83932 2.24996 1.85533 0
M  V30 29 H -0.956041 0.713163 2.39491 0
M  V30 30 H 3.47231 -2.29146 0.249327 0
M  V30 31 H 5.10728 -0.585854 -0.408384 0
M  V30 END ATOM
M  V30 BEGIN BOND
M  V30 1 1 1 2
M  V30 2 2 2 3
M  V30 3 1 3 4
M  V30 4 2 4 5
M  V30 5 1 5 6
M  V30 6 1 6 7
M  V30 7 2 7 8
M  V30 8 2 7 9
M  V30 9 1 7 10
M  V30 10 2 10 11
M  V30 11 1 11 12
M  V30 12 2 12 13
M  V30 13 1 13 14
M  V30 14 1 13 15
M  V30 15 2 15 16
M  V30 16 1 5 17
M  V30 17 2 17 18
M  V30 18 1 18 2
M  V30 19 1 16 10
M  V30 20 1 1 19
M  V30 21 1 1 20
M  V30 22 1 3 21
M  V30 23 1 4 22
M  V30 24 1 6 23
M  V30 25 1 11 24
M  V30 26 1 12 25
M  V30 27 1 14 26
M  V30 28 1 14 27
M  V30 29 1 15 28
M  V30 30 1 16 29
M  V30 31 1 17 30
M  V30 32 1 18 31
M  V30 END BOND
M  V30 END CTAB
M  END
