
     RDKit          3D

  0  0  0  0  0  0  0  0  0  0999 V3000
M  V30 BEGIN CTAB
M  V30 COUNTS 32 32 0 0 0
M  V30 BEGIN ATOM
M  V30 1 N 0.452474 -1.66376 1.8851 0
M  V30 2 C -0.11007 -1.56632 0.548473 0
M  V30 3 C -0.227263 -0.108193 0.179592 0
M  V30 4 C -0.796875 0.0602118 -1.19256 0
M  V30 5 C -2.25282 0.249719 -1.29657 0
M  V30 6 C -2.89196 1.04471 -0.212847 0
M  V30 7 C -2.5297 0.352939 1.10877 0
M  V30 8 C -1.05487 0.537535 1.26234 0
M  V30 9 C 1.12241 0.557971 0.229382 0
M  V30 10 C 2.13176 0.0210417 -0.672771 0
M  V30 11 O 1.91606 -0.90232 -1.49267 0
M  V30 12 N 3.45203 0.543654 -0.657821 0
M  V30 13 N 4.47149 0.0885387 -1.48386 0
M  V30 14 H 1.16243 -2.4309 1.89196 0
M  V30 15 H -0.253642 -1.88818 2.60483 0
M  V30 16 H 0.369579 -2.19336 -0.187674 0
M  V30 17 H -1.1826 -1.92714 0.643213 0
M  V30 18 H -0.261202 0.878284 -1.75335 0
M  V30 19 H -0.530733 -0.876614 -1.76732 0
M  V30 20 H -2.82406 -0.710661 -1.3896 0
M  V30 21 H -2.46711 0.785708 -2.2683 0
M  V30 22 H -2.51582 2.08129 -0.135739 0
M  V30 23 H -3.97907 1.0491 -0.37143 0
M  V30 24 H -3.03349 0.848051 1.95246 0
M  V30 25 H -2.76491 -0.718647 1.06286 0
M  V30 26 H -0.75932 0.120729 2.2427 0
M  V30 27 H -0.818801 1.61376 1.25726 0
M  V30 28 H 1.47426 0.632725 1.28414 0
M  V30 29 H 0.939509 1.62359 -0.0961465 0
M  V30 30 H 3.67798 1.31193 0.00693607 0
M  V30 31 H 5.33292 -0.185696 -0.962062 0
M  V30 32 H 4.75143 0.770305 -2.21928 0
M  V30 END ATOM
M  V30 BEGIN BOND
M  V30 1 1 1 2
M  V30 2 1 2 3
M  V30 3 1 3 4
M  V30 4 1 4 5
M  V30 5 1 5 6
M  V30 6 1 6 7
M  V30 7 1 7 8
M  V30 8 1 3 9
M  V30 9 1 9 10
M  V30 10 2 10 11
M  V30 11 1 10 12
M  V30 12 1 12 13
M  V30 13 1 8 3
M  V30 14 1 1 14
M  V30 15 1 1 15
M  V30 16 1 2 16
M  V30 17 1 2 17
M  V30 18 1 4 18
M  V30 19 1 4 19
M  V30 20 1 5 20
M  V30 21 1 5 21
M  V30 22 1 6 22
M  V30 23 1 6 23
M  V30 24 1 7 24
M  V30 25 1 7 25
M  V30 26 1 8 26
M  V30 27 1 8 27
M  V30 28 1 9 28
M  V30 29 1 9 29
M  V30 30 1 12 30
M  V30 31 1 13 31
M  V30 32 1 13 32
M  V30 END BOND
M  V30 END CTAB
M  END
