
     RDKit          3D

  0  0  0  0  0  0  0  0  0  0999 V3000
M  V30 BEGIN CTAB
M  V30 COUNTS 44 43 0 0 0
M  V30 BEGIN ATOM
M  V30 1 N -6.7043 0.065306 -0.689073 0
M  V30 2 C -5.7877 -1.02728 -0.688691 0
M  V30 3 N -6.22528 -2.21007 -0.425808 0
M  V30 4 N -4.42136 -0.779707 -0.977583 0
M  V30 5 C -3.91357 0.486593 -1.3205 0
M  V30 6 N -3.8134 0.810282 -2.55643 0
M  V30 7 N -3.51889 1.39044 -0.326616 0
M  V30 8 C -2.17061 1.57428 0.132644 0
M  V30 9 C -1.64804 0.372868 0.885191 0
M  V30 10 C -0.223503 0.670092 1.32341 0
M  V30 11 C 0.363726 -0.488988 2.08469 0
M  V30 12 C 1.77459 -0.199148 2.52428 0
M  V30 13 C 2.71262 0.0745089 1.37057 0
M  V30 14 N 2.78773 -1.06382 0.463311 0
M  V30 15 C 3.61427 -1.00789 -0.677576 0
M  V30 16 N 3.09836 -0.826078 -1.82904 0
M  V30 17 N 5.03408 -1.15296 -0.566582 0
M  V30 18 C 5.95262 -0.285656 -1.21999 0
M  V30 19 N 5.57429 0.963195 -1.72902 0
M  V30 20 N 7.18471 -0.70542 -1.32957 0
M  V30 21 H -7.71433 -0.0879674 -0.918013 0
M  V30 22 H -6.41001 1.02961 -0.467333 0
M  V30 23 H -5.56272 -3.00632 -0.424567 0
M  V30 24 H -3.76543 -1.60876 -0.92594 0
M  V30 25 H -3.45288 1.71676 -2.92332 0
M  V30 26 H -4.27104 1.9705 0.107856 0
M  V30 27 H -2.10737 2.46407 0.752176 0
M  V30 28 H -1.51186 1.70942 -0.772011 0
M  V30 29 H -1.63762 -0.533016 0.273935 0
M  V30 30 H -2.2245 0.166964 1.7909 0
M  V30 31 H -0.16106 1.56049 1.97991 0
M  V30 32 H 0.432313 0.853677 0.434313 0
M  V30 33 H -0.216412 -0.74819 2.98393 0
M  V30 34 H 0.409132 -1.3788 1.39765 0
M  V30 35 H 2.13819 -1.03229 3.163 0
M  V30 36 H 1.77069 0.744188 3.13751 0
M  V30 37 H 2.41295 1.00872 0.857265 0
M  V30 38 H 3.74703 0.26173 1.73637 0
M  V30 39 H 2.22764 -1.92248 0.659991 0
M  V30 40 H 2.10984 -0.706837 -2.06559 0
M  V30 41 H 5.35668 -1.95005 0.0349527 0
M  V30 42 H 5.35625 1.15407 -2.73485 0
M  V30 43 H 5.48756 1.80676 -1.09791 0
M  V30 44 H 7.91664 -0.132819 -1.79294 0
M  V30 END ATOM
M  V30 BEGIN BOND
M  V30 1 1 1 2
M  V30 2 2 2 3 CFG=2
M  V30 3 1 2 4
M  V30 4 1 4 5
M  V30 5 2 5 6 CFG=2
M  V30 6 1 5 7
M  V30 7 1 7 8
M  V30 8 1 8 9
M  V30 9 1 9 10
M  V30 10 1 10 11
M  V30 11 1 11 12
M  V30 12 1 12 13
M  V30 13 1 13 14
M  V30 14 1 14 15
M  V30 15 2 15 16 CFG=2
M  V30 16 1 15 17
M  V30 17 1 17 18
M  V30 18 1 18 19
M  V30 19 2 18 20 CFG=2
M  V30 20 1 1 21
M  V30 21 1 1 22
M  V30 22 1 3 23
M  V30 23 1 4 24
M  V30 24 1 6 25
M  V30 25 1 7 26
M  V30 26 1 8 27
M  V30 27 1 8 28
M  V30 28 1 9 29
M  V30 29 1 9 30
M  V30 30 1 10 31
M  V30 31 1 10 32
M  V30 32 1 11 33
M  V30 33 1 11 34
M  V30 34 1 12 35
M  V30 35 1 12 36
M  V30 36 1 13 37
M  V30 37 1 13 38
M  V30 38 1 14 39
M  V30 39 1 16 40
M  V30 40 1 17 41
M  V30 41 1 19 42
M  V30 42 1 19 43
M  V30 43 1 20 44
M  V30 END BOND
M  V30 END CTAB
M  END
