
     RDKit          3D

  0  0  0  0  0  0  0  0  0  0999 V3000
M  V30 BEGIN CTAB
M  V30 COUNTS 23 24 0 0 0
M  V30 BEGIN ATOM
M  V30 1 N 2.09652 -0.811675 1.17427 0
M  V30 2 N 1.57505 -0.0916809 0.0950281 0
M  V30 3 C 2.30865 0.470504 -0.883518 0
M  V30 4 N 3.71993 0.43684 -0.998332 0
M  V30 5 N 1.46503 1.08614 -1.75893 0
M  V30 6 N 0.236263 0.903083 -1.32242 0
M  V30 7 C 0.291286 0.183767 -0.188711 0
M  V30 8 C -0.895602 -0.227983 0.605238 0
M  V30 9 C -1.75727 0.957835 0.983774 0
M  V30 10 O -3.03657 0.392247 0.98018 0
M  V30 11 C -3.06892 -0.142737 -0.32761 0
M  V30 12 C -1.82608 -1.01979 -0.297857 0
M  V30 13 H 2.32357 -0.364897 2.0863 0
M  V30 14 H 2.28602 -1.85457 1.11209 0
M  V30 15 H 4.26243 1.29275 -0.760079 0
M  V30 16 H 4.2281 -0.415438 -1.31274 0
M  V30 17 H -0.603463 -0.810551 1.49263 0
M  V30 18 H -1.73425 1.69449 0.154858 0
M  V30 19 H -1.4919 1.38216 1.96358 0
M  V30 20 H -3.98328 -0.705686 -0.526818 0
M  V30 21 H -2.90534 0.717748 -1.0071 0
M  V30 22 H -1.44937 -1.04803 -1.34831 0
M  V30 23 H -2.04079 -2.02451 0.0844893 0
M  V30 END ATOM
M  V30 BEGIN BOND
M  V30 1 1 1 2
M  V30 2 1 2 3
M  V30 3 1 3 4
M  V30 4 2 3 5
M  V30 5 1 5 6
M  V30 6 2 6 7
M  V30 7 1 7 8
M  V30 8 1 8 9
M  V30 9 1 9 10
M  V30 10 1 10 11
M  V30 11 1 11 12
M  V30 12 1 7 2
M  V30 13 1 12 8
M  V30 14 1 1 13
M  V30 15 1 1 14
M  V30 16 1 4 15
M  V30 17 1 4 16
M  V30 18 1 8 17
M  V30 19 1 9 18
M  V30 20 1 9 19
M  V30 21 1 11 20
M  V30 22 1 11 21
M  V30 23 1 12 22
M  V30 24 1 12 23
M  V30 END BOND
M  V30 END CTAB
M  END
