
     RDKit          3D

  0  0  0  0  0  0  0  0  0  0999 V3000
M  V30 BEGIN CTAB
M  V30 COUNTS 93 98 0 0 0
M  V30 BEGIN ATOM
M  V30 1 N 13.1794 2.0951 0.455084 0
M  V30 2 C 12.6623 0.910757 -0.107588 0
M  V30 3 N 11.589 0.280423 0.420822 0
M  V30 4 C 11.075 -0.84932 -0.0945769 0
M  V30 5 C 11.6674 -1.40726 -1.22703 0
M  V30 6 N 10.9495 -2.50377 -1.49995 0
M  V30 7 C 9.96248 -2.65706 -0.618227 0
M  V30 8 N 10.0374 -1.62628 0.260811 0
M  V30 9 C 9.16596 -1.4025 1.37259 0 CFG=2
M  V30 10 O 7.93213 -1.93467 1.07675 0
M  V30 11 C 6.9508 -1.04589 1.41254 0 CFG=2
M  V30 12 C 6.40328 -0.357512 0.181183 0
M  V30 13 O 5.40207 0.549037 0.525163 0
M  V30 14 P 4.7628 1.33762 -0.799666 0
M  V30 15 O 5.79136 1.20231 -2.14848 0
M  V30 16 O 4.61857 2.84099 -0.543745 0
M  V30 17 O 3.21628 0.781244 -1.19693 0
M  V30 18 P 3.2104 -0.270648 -2.49377 0
M  V30 19 O 2.31748 0.474297 -3.74832 0
M  V30 20 O 4.56668 -0.663529 -2.97211 0
M  V30 21 O 2.29826 -1.64357 -2.03508 0
M  V30 22 P 1.00345 -1.09094 -1.10059 0
M  V30 23 O 0.134971 -2.40312 -0.481853 0
M  V30 24 O 0.143178 -0.196626 -1.93586 0
M  V30 25 O 1.58515 -0.210594 0.223944 0
M  V30 26 P 0.332358 0.650739 0.962526 0
M  V30 27 O 1.04769 1.83918 1.94721 0
M  V30 28 O -0.477667 -0.240319 1.85691 0
M  V30 29 O -0.627182 1.33906 -0.235838 0
M  V30 30 P -2.1154 1.85477 0.4192 0
M  V30 31 O -1.8918 3.24474 1.37892 0
M  V30 32 O -3.1169 2.12353 -0.669305 0
M  V30 33 O -2.72821 0.644889 1.40904 0
M  V30 34 P -3.80719 -0.354246 0.580987 0
M  V30 35 O -4.13623 -1.7306 1.50328 0
M  V30 36 O -3.14735 -0.823588 -0.696804 0
M  V30 37 O -5.20224 0.520115 0.255027 0
M  V30 38 C -6.22709 -0.291694 -0.231315 0
M  V30 39 C -7.47542 0.472596 -0.526356 0 CFG=1
M  V30 40 O -8.42848 -0.421739 -1.00238 0
M  V30 41 C -9.60579 0.331729 -0.891854 0 CFG=2
M  V30 42 C -9.56372 0.789567 0.522119 0 CFG=2
M  V30 43 O -10.2936 1.95939 0.733312 0
M  V30 44 C -8.07458 1.14212 0.680554 0 CFG=2
M  V30 45 O -7.90578 2.5165 0.551405 0
M  V30 46 N -10.7665 -0.415655 -1.27409 0
M  V30 47 C -10.8533 -0.981976 -2.50875 0
M  V30 48 N -12.0347 -1.61111 -2.58606 0
M  V30 49 C -12.6858 -1.44183 -1.4095 0
M  V30 50 C -11.8799 -0.684912 -0.582285 0
M  V30 51 N -12.2332 -0.33613 0.663324 0
M  V30 52 C -13.4374 -0.761718 1.09431 0
M  V30 53 N -13.8746 -0.42628 2.40832 0
M  V30 54 N -14.2604 -1.50754 0.313779 0
M  V30 55 C -13.9015 -1.85448 -0.934248 0
M  V30 56 O -14.6336 -2.54269 -1.68702 0
M  V30 57 C 7.55926 0.0159874 2.28853 0 CFG=1
M  V30 58 O 7.62309 -0.479595 3.5763 0
M  V30 59 C 8.99685 0.035208 1.74921 0 CFG=1
M  V30 60 O 9.79367 0.403635 2.84151 0
M  V30 61 C 12.7615 -0.777299 -1.77737 0
M  V30 62 O 13.277 -1.30135 -2.79862 0
M  V30 63 N 13.2176 0.340181 -1.21336 0
M  V30 64 H 12.5963 2.94752 0.493286 0
M  V30 65 H 14.1381 2.1211 0.831131 0
M  V30 66 H 9.25397 -3.46795 -0.635719 0
M  V30 67 H 9.52216 -1.9346 2.30368 0
M  V30 68 H 6.1153 -1.50353 1.99165 0
M  V30 69 H 5.99334 -1.13358 -0.491964 0
M  V30 70 H 7.25132 0.159016 -0.329484 0
M  V30 71 H 6.60646 1.74956 -1.91346 0
M  V30 72 H 2.38665 1.46021 -3.68652 0
M  V30 73 H 0.778667 -2.91713 0.0881155 0
M  V30 74 H 0.37032 2.51158 2.24755 0
M  V30 75 H -1.94362 4.06393 0.851671 0
M  V30 76 H -3.49611 -2.46972 1.27212 0
M  V30 77 H -5.92264 -0.846243 -1.11976 0
M  V30 78 H -6.45545 -1.02286 0.565219 0
M  V30 79 H -7.322 1.21929 -1.35557 0
M  V30 80 H -9.44796 1.22535 -1.53975 0
M  V30 81 H -9.7485 0.0114681 1.27524 0
M  V30 82 H -10.6221 2.36336 -0.11125 0
M  V30 83 H -7.66228 0.786996 1.62415 0
M  V30 84 H -6.99079 2.72775 0.204412 0
M  V30 85 H -10.1318 -0.955058 -3.3058 0
M  V30 86 H -13.2539 -0.430208 3.24337 0
M  V30 87 H -14.882 -0.151972 2.58502 0
M  V30 88 H -15.1937 -1.83847 0.645312 0
M  V30 89 H 7.08123 0.989643 2.19887 0
M  V30 90 H 8.30801 -0.0751137 4.14204 0
M  V30 91 H 9.08263 0.730699 0.902259 0
M  V30 92 H 9.69078 1.40203 2.91927 0
M  V30 93 H 14.0488 0.829299 -1.62167 0
M  V30 END ATOM
M  V30 BEGIN BOND
M  V30 1 1 1 2
M  V30 2 2 2 3
M  V30 3 1 3 4
M  V30 4 2 4 5
M  V30 5 1 5 6
M  V30 6 2 6 7
M  V30 7 1 7 8
M  V30 8 1 8 9
M  V30 9 1 9 10
M  V30 10 1 10 11
M  V30 11 1 11 12
M  V30 12 1 12 13
M  V30 13 1 13 14
M  V30 14 1 14 15
M  V30 15 2 14 16
M  V30 16 1 14 17
M  V30 17 1 17 18
M  V30 18 1 18 19
M  V30 19 2 18 20
M  V30 20 1 18 21
M  V30 21 1 21 22
M  V30 22 1 22 23
M  V30 23 2 22 24
M  V30 24 1 22 25
M  V30 25 1 25 26
M  V30 26 1 26 27
M  V30 27 2 26 28
M  V30 28 1 26 29
M  V30 29 1 29 30
M  V30 30 1 30 31
M  V30 31 2 30 32
M  V30 32 1 30 33
M  V30 33 1 33 34
M  V30 34 1 34 35
M  V30 35 2 34 36
M  V30 36 1 34 37
M  V30 37 1 37 38
M  V30 38 1 38 39
M  V30 39 1 39 40
M  V30 40 1 40 41
M  V30 41 1 41 42
M  V30 42 1 42 43
M  V30 43 1 42 44
M  V30 44 1 44 45
M  V30 45 1 41 46
M  V30 46 1 46 47
M  V30 47 2 47 48
M  V30 48 1 48 49
M  V30 49 2 49 50
M  V30 50 1 50 51
M  V30 51 2 51 52
M  V30 52 1 52 53
M  V30 53 1 52 54
M  V30 54 1 54 55
M  V30 55 2 55 56
M  V30 56 1 11 57
M  V30 57 1 57 58
M  V30 58 1 57 59
M  V30 59 1 59 60
M  V30 60 1 5 61
M  V30 61 2 61 62
M  V30 62 1 61 63
M  V30 63 1 63 2
M  V30 64 1 8 4
M  V30 65 1 59 9
M  V30 66 1 44 39
M  V30 67 1 50 46
M  V30 68 1 55 49
M  V30 69 1 1 64
M  V30 70 1 1 65
M  V30 71 1 7 66
M  V30 72 1 9 67 CFG=1
M  V30 73 1 11 68 CFG=1
M  V30 74 1 12 69
M  V30 75 1 12 70
M  V30 76 1 15 71
M  V30 77 1 19 72
M  V30 78 1 23 73
M  V30 79 1 27 74
M  V30 80 1 31 75
M  V30 81 1 35 76
M  V30 82 1 38 77
M  V30 83 1 38 78
M  V30 84 1 39 79 CFG=3
M  V30 85 1 41 80 CFG=3
M  V30 86 1 42 81 CFG=1
M  V30 87 1 43 82
M  V30 88 1 44 83 CFG=1
M  V30 89 1 45 84
M  V30 90 1 47 85
M  V30 91 1 53 86
M  V30 92 1 53 87
M  V30 93 1 54 88
M  V30 94 1 57 89 CFG=1
M  V30 95 1 58 90
M  V30 96 1 59 91 CFG=3
M  V30 97 1 60 92
M  V30 98 1 63 93
M  V30 END BOND
M  V30 END CTAB
M  END
