
     RDKit          3D

  0  0  0  0  0  0  0  0  0  0999 V3000
M  V30 BEGIN CTAB
M  V30 COUNTS 28 28 0 0 0
M  V30 BEGIN ATOM
M  V30 1 C 3.59538 -0.516017 -0.319096 0
M  V30 2 C 2.17675 -0.0200175 -0.407429 0
M  V30 3 C 1.32477 -0.862717 0.509758 0
M  V30 4 C -0.11243 -0.419705 0.471651 0
M  V30 5 N -0.786833 0.29912 1.38543 0
M  V30 6 C -2.06685 0.477138 0.959352 0
M  V30 7 N -2.19861 -0.133089 -0.228126 0
M  V30 8 C -1.01455 -0.684879 -0.538743 0
M  V30 9 N -0.706706 -1.43436 -1.72424 0
M  V30 10 N -3.37282 -0.190862 -1.02299 0
M  V30 11 C -3.12136 1.2266 1.70487 0
M  V30 12 C 2.12847 1.40736 0.146347 0
M  V30 13 H 3.68869 -1.30285 0.455826 0
M  V30 14 H 4.3314 0.289484 -0.134057 0
M  V30 15 H 3.82805 -1.04264 -1.28415 0
M  V30 16 H 1.80231 -0.0678563 -1.44382 0
M  V30 17 H 1.71458 -0.803371 1.5359 0
M  V30 18 H 1.33481 -1.93078 0.2113 0
M  V30 19 H -1.22965 -1.23973 -2.60894 0
M  V30 20 H 0.0397608 -2.16119 -1.66792 0
M  V30 21 H -4.26746 -0.102021 -0.530256 0
M  V30 22 H -3.24983 -0.31881 -2.03882 0
M  V30 23 H -4.06012 0.639978 1.74474 0
M  V30 24 H -3.38413 2.17876 1.17484 0
M  V30 25 H -2.75307 1.52283 2.70842 0
M  V30 26 H 2.3491 1.29121 1.24154 0
M  V30 27 H 2.88103 2.06242 -0.317417 0
M  V30 28 H 1.12933 1.836 0.0160544 0
M  V30 END ATOM
M  V30 BEGIN BOND
M  V30 1 1 1 2
M  V30 2 1 2 3
M  V30 3 1 3 4
M  V30 4 1 4 5
M  V30 5 2 5 6
M  V30 6 1 6 7
M  V30 7 1 7 8
M  V30 8 1 8 9
M  V30 9 1 7 10
M  V30 10 1 6 11
M  V30 11 1 2 12
M  V30 12 2 8 4
M  V30 13 1 1 13
M  V30 14 1 1 14
M  V30 15 1 1 15
M  V30 16 1 2 16
M  V30 17 1 3 17
M  V30 18 1 3 18
M  V30 19 1 9 19
M  V30 20 1 9 20
M  V30 21 1 10 21
M  V30 22 1 10 22
M  V30 23 1 11 23
M  V30 24 1 11 24
M  V30 25 1 11 25
M  V30 26 1 12 26
M  V30 27 1 12 27
M  V30 28 1 12 28
M  V30 END BOND
M  V30 END CTAB
M  END
