
     RDKit          3D

  0  0  0  0  0  0  0  0  0  0999 V3000
M  V30 BEGIN CTAB
M  V30 COUNTS 38 38 0 0 0
M  V30 BEGIN ATOM
M  V30 1 C 3.17617 -0.350475 3.10854 0
M  V30 2 C 3.61372 -0.535968 1.69038 0 CFG=2
M  V30 3 C 2.62585 0.160369 0.752505 0
M  V30 4 O 2.50144 1.39275 0.98306 0
M  V30 5 N 1.97985 -0.590822 -0.228279 0
M  V30 6 C 1.04649 -0.119373 -1.15327 0
M  V30 7 C -0.261508 0.422936 -0.708764 0
M  V30 8 N -0.22083 1.55215 0.143763 0
M  V30 9 C -0.943631 0.88516 -2.01506 0
M  V30 10 C -2.35457 1.30047 -1.81671 0
M  V30 11 C -3.31334 0.113171 -1.86909 0
M  V30 12 C -3.59746 -0.291911 -0.455779 0
M  V30 13 C -2.40548 -0.0816452 0.468779 0
M  V30 14 C -1.13524 -0.641707 -0.06807 0
M  V30 15 N 3.7086 -1.92657 1.37715 0
M  V30 16 H 2.80924 -1.29721 3.50586 0
M  V30 17 H 4.0709 -0.0599988 3.70032 0
M  V30 18 H 2.41352 0.418988 3.25028 0
M  V30 19 H 4.61904 -0.0796552 1.50511 0
M  V30 20 H 2.22576 -1.63133 -0.273608 0
M  V30 21 H 0.823774 -0.879846 -1.96455 0
M  V30 22 H 1.54863 0.761141 -1.69163 0
M  V30 23 H -0.689956 2.40133 -0.183813 0
M  V30 24 H -0.371291 1.34027 1.13875 0
M  V30 25 H -0.868812 0.0675976 -2.7452 0
M  V30 26 H -0.368733 1.7663 -2.38915 0
M  V30 27 H -2.52043 1.9555 -0.966007 0
M  V30 28 H -2.63003 1.91405 -2.72354 0
M  V30 29 H -2.88243 -0.705287 -2.47892 0
M  V30 30 H -4.27861 0.389176 -2.34948 0
M  V30 31 H -4.00015 -1.31183 -0.3863 0
M  V30 32 H -4.42224 0.383312 -0.0895928 0
M  V30 33 H -2.31932 0.955825 0.785354 0
M  V30 34 H -2.68329 -0.651222 1.40686 0
M  V30 35 H -1.31718 -1.47663 -0.797222 0
M  V30 36 H -0.559617 -1.09701 0.764547 0
M  V30 37 H 4.15893 -2.0308 0.457517 0
M  V30 38 H 2.82224 -2.42122 1.51058 0
M  V30 END ATOM
M  V30 BEGIN BOND
M  V30 1 1 1 2
M  V30 2 1 2 3
M  V30 3 2 3 4
M  V30 4 1 3 5
M  V30 5 1 5 6
M  V30 6 1 6 7
M  V30 7 1 7 8
M  V30 8 1 7 9
M  V30 9 1 9 10
M  V30 10 1 10 11
M  V30 11 1 11 12
M  V30 12 1 12 13
M  V30 13 1 13 14
M  V30 14 1 2 15
M  V30 15 1 14 7
M  V30 16 1 1 16
M  V30 17 1 1 17
M  V30 18 1 1 18
M  V30 19 1 2 19 CFG=1
M  V30 20 1 5 20
M  V30 21 1 6 21
M  V30 22 1 6 22
M  V30 23 1 8 23
M  V30 24 1 8 24
M  V30 25 1 9 25
M  V30 26 1 9 26
M  V30 27 1 10 27
M  V30 28 1 10 28
M  V30 29 1 11 29
M  V30 30 1 11 30
M  V30 31 1 12 31
M  V30 32 1 12 32
M  V30 33 1 13 33
M  V30 34 1 13 34
M  V30 35 1 14 35
M  V30 36 1 14 36
M  V30 37 1 15 37
M  V30 38 1 15 38
M  V30 END BOND
M  V30 END CTAB
M  END
