
     RDKit          3D

  0  0  0  0  0  0  0  0  0  0999 V3000
M  V30 BEGIN CTAB
M  V30 COUNTS 24 24 0 0 0
M  V30 BEGIN ATOM
M  V30 1 N 3.74253 0.657011 -2.12118 0
M  V30 2 C 3.35516 0.291446 -1.09224 0
M  V30 3 C 2.85707 -0.152315 0.237789 0
M  V30 4 C 1.42348 0.273 0.283244 0
M  V30 5 C 1.10268 1.4066 0.999497 0
M  V30 6 C -0.202511 1.85826 1.07054 0
M  V30 7 C -1.19888 1.15597 0.408998 0
M  V30 8 C -0.858302 0.00758678 -0.313729 0
M  V30 9 C 0.43532 -0.440674 -0.38455 0
M  V30 10 N 0.756207 -1.6113 -1.12312 0
M  V30 11 O -1.87056 -0.681179 -0.968222 0
M  V30 12 C -2.50425 -1.69455 -0.170033 0
M  V30 13 N -2.55157 1.54816 0.432182 0
M  V30 14 H 2.95696 -1.26586 0.255609 0
M  V30 15 H 3.39672 0.345055 1.04463 0
M  V30 16 H 1.8234 2.0043 1.53943 0
M  V30 17 H -0.481195 2.74502 1.62512 0
M  V30 18 H 0.0276874 -2.23523 -1.48217 0
M  V30 19 H 1.74569 -1.89518 -1.3377 0
M  V30 20 H -3.2697 -2.25172 -0.705561 0
M  V30 21 H -1.66029 -2.31767 0.214176 0
M  V30 22 H -2.90145 -1.13672 0.731592 0
M  V30 23 H -3.04653 1.73901 -0.460358 0
M  V30 24 H -3.07767 1.65098 1.31606 0
M  V30 END ATOM
M  V30 BEGIN BOND
M  V30 1 3 1 2
M  V30 2 1 2 3
M  V30 3 1 3 4
M  V30 4 2 4 5
M  V30 5 1 5 6
M  V30 6 2 6 7
M  V30 7 1 7 8
M  V30 8 2 8 9
M  V30 9 1 9 10
M  V30 10 1 8 11
M  V30 11 1 11 12
M  V30 12 1 7 13
M  V30 13 1 9 4
M  V30 14 1 3 14
M  V30 15 1 3 15
M  V30 16 1 5 16
M  V30 17 1 6 17
M  V30 18 1 10 18
M  V30 19 1 10 19
M  V30 20 1 12 20
M  V30 21 1 12 21
M  V30 22 1 12 22
M  V30 23 1 13 23
M  V30 24 1 13 24
M  V30 END BOND
M  V30 END CTAB
M  END
