
     RDKit          3D

  0  0  0  0  0  0  0  0  0  0999 V3000
M  V30 BEGIN CTAB
M  V30 COUNTS 59 61 0 0 0
M  V30 BEGIN ATOM
M  V30 1 O -3.26458 -1.71268 1.36145 0
M  V30 2 C -2.91937 -0.599632 1.77543 0
M  V30 3 N -3.50373 0.622506 1.3899 0
M  V30 4 C -4.5546 0.820622 0.486774 0
M  V30 5 C -5.20154 2.05627 0.43886 0
M  V30 6 C -6.22546 2.28534 -0.448766 0
M  V30 7 C -6.64366 1.3064 -1.31552 0
M  V30 8 C -6.02604 0.0970598 -1.284 0
M  V30 9 C -4.97469 -0.152997 -0.379929 0
M  V30 10 S -7.94547 1.5771 -2.45291 0
M  V30 11 O -7.7685 0.782729 -3.69094 0
M  V30 12 O -8.02194 3.05097 -2.80517 0
M  V30 13 N -9.45703 1.14447 -1.7227 0
M  V30 14 C -1.77598 -0.567108 2.77579 0
M  V30 15 C -1.34814 -1.98896 3.00602 0
M  V30 16 O -0.91415 -2.6049 1.86976 0
M  V30 17 C 0.163725 -2.33952 1.09681 0
M  V30 18 C 1.1234 -1.37534 1.29709 0
M  V30 19 C 2.19905 -1.1739 0.453659 0
M  V30 20 C 2.27991 -2.00962 -0.640876 0
M  V30 21 C 1.34608 -2.98941 -0.884067 0
M  V30 22 C 0.294352 -3.16645 -0.0362638 0
M  V30 23 N -0.665326 -4.19585 -0.313353 0
M  V30 24 C 3.18433 -0.128648 0.724295 0
M  V30 25 O 3.02591 0.585574 1.74968 0
M  V30 26 O 4.2679 0.125542 -0.062779 0
M  V30 27 C 5.23624 1.13508 0.181792 0
M  V30 28 C 6.54533 0.501406 0.472833 0
M  V30 29 C 7.51099 0.456164 -0.672464 0
M  V30 30 C 7.60262 1.76412 -1.41477 0
M  V30 31 C 6.20977 1.98183 -1.98415 0
M  V30 32 C 5.17515 2.12691 -0.902926 0
M  V30 33 H -3.10928 1.5282 1.82457 0
M  V30 34 H -4.87228 2.82499 1.122 0
M  V30 35 H -6.70751 3.25512 -0.461359 0
M  V30 36 H -6.34101 -0.69295 -1.96156 0
M  V30 37 H -4.53896 -1.14159 -0.435738 0
M  V30 38 H -9.30715 1.10251 -0.690615 0
M  V30 39 H -9.68938 0.15576 -2.0335 0
M  V30 40 H -2.2017 -0.133299 3.71565 0
M  V30 41 H -1.00833 0.040251 2.32707 0
M  V30 42 H -0.56306 -1.98366 3.82133 0
M  V30 43 H -2.21953 -2.49467 3.49889 0
M  V30 44 H 1.07073 -0.739816 2.17011 0
M  V30 45 H 3.13143 -1.84871 -1.30685 0
M  V30 46 H 1.50484 -3.59883 -1.78223 0
M  V30 47 H -1.33884 -4.0963 -1.10321 0
M  V30 48 H -0.714175 -5.0621 0.262043 0
M  V30 49 H 4.88946 1.63066 1.13276 0
M  V30 50 H 7.08264 0.990965 1.32296 0
M  V30 51 H 6.38763 -0.553124 0.8032 0
M  V30 52 H 8.49071 0.120304 -0.316981 0
M  V30 53 H 7.14623 -0.318746 -1.38689 0
M  V30 54 H 8.28788 1.61846 -2.27085 0
M  V30 55 H 7.90255 2.59303 -0.750376 0
M  V30 56 H 6.00583 1.15109 -2.6741 0
M  V30 57 H 6.26756 2.91152 -2.58592 0
M  V30 58 H 4.18454 2.14957 -1.40615 0
M  V30 59 H 5.30467 3.17631 -0.501463 0
M  V30 END ATOM
M  V30 BEGIN BOND
M  V30 1 2 1 2
M  V30 2 1 2 3
M  V30 3 1 3 4
M  V30 4 2 4 5
M  V30 5 1 5 6
M  V30 6 2 6 7
M  V30 7 1 7 8
M  V30 8 2 8 9
M  V30 9 1 7 10
M  V30 10 2 10 11
M  V30 11 2 10 12
M  V30 12 1 10 13
M  V30 13 1 2 14
M  V30 14 1 14 15
M  V30 15 1 15 16
M  V30 16 1 16 17
M  V30 17 2 17 18
M  V30 18 1 18 19
M  V30 19 2 19 20
M  V30 20 1 20 21
M  V30 21 2 21 22
M  V30 22 1 22 23
M  V30 23 1 19 24
M  V30 24 2 24 25
M  V30 25 1 24 26
M  V30 26 1 26 27
M  V30 27 1 27 28
M  V30 28 1 28 29
M  V30 29 1 29 30
M  V30 30 1 30 31
M  V30 31 1 31 32
M  V30 32 1 9 4
M  V30 33 1 22 17
M  V30 34 1 32 27
M  V30 35 1 3 33
M  V30 36 1 5 34
M  V30 37 1 6 35
M  V30 38 1 8 36
M  V30 39 1 9 37
M  V30 40 1 13 38
M  V30 41 1 13 39
M  V30 42 1 14 40
M  V30 43 1 14 41
M  V30 44 1 15 42
M  V30 45 1 15 43
M  V30 46 1 18 44
M  V30 47 1 20 45
M  V30 48 1 21 46
M  V30 49 1 23 47
M  V30 50 1 23 48
M  V30 51 1 27 49
M  V30 52 1 28 50
M  V30 53 1 28 51
M  V30 54 1 29 52
M  V30 55 1 29 53
M  V30 56 1 30 54
M  V30 57 1 30 55
M  V30 58 1 31 56
M  V30 59 1 31 57
M  V30 60 1 32 58
M  V30 61 1 32 59
M  V30 END BOND
M  V30 END CTAB
M  END
