
     RDKit          3D

  0  0  0  0  0  0  0  0  0  0999 V3000
M  V30 BEGIN CTAB
M  V30 COUNTS 66 70 0 0 0
M  V30 BEGIN ATOM
M  V30 1 O 8.30473 3.77761 -0.58838 0
M  V30 2 C 8.08967 2.47963 -0.586943 0
M  V30 3 O 8.03262 1.87859 0.522817 0
M  V30 4 C 7.91575 1.72261 -1.8468 0
M  V30 5 O 7.59832 0.387179 -1.68007 0
M  V30 6 C 6.47645 -0.129129 -1.09874 0
M  V30 7 C 5.4527 0.600025 -0.595576 0
M  V30 8 C 4.3398 -0.0204198 -0.013009 0
M  V30 9 C 4.21398 -1.38013 0.0850941 0
M  V30 10 C 5.28726 -2.10258 -0.44435 0
M  V30 11 C 6.38945 -1.51217 -1.02067 0
M  V30 12 C 3.12006 -2.08699 0.669158 0
M  V30 13 O 3.23301 -3.3931 0.608654 0
M  V30 14 N 1.94887 -1.66413 1.29496 0
M  V30 15 C 0.98102 -2.68178 1.80353 0
M  V30 16 C -0.361965 -2.33939 1.20006 0
M  V30 17 C -0.878553 -1.02826 1.70509 0
M  V30 18 C 0.27051 -0.310759 2.37677 0
M  V30 19 C 1.54027 -0.318669 1.52743 0
M  V30 20 O -1.87604 -1.13408 2.66364 0
M  V30 21 C -3.01671 -1.71644 2.21198 0
M  V30 22 C -3.71603 -0.94818 1.08219 0 CFG=2
M  V30 23 C -2.73827 -0.500088 0.0612945 0 CFG=2
M  V30 24 C -1.37215 -0.169491 0.610874 0
M  V30 25 N -3.15161 0.615569 -0.758771 0
M  V30 26 C -2.35359 1.64192 -1.10659 0
M  V30 27 N -3.00923 2.52356 -1.87085 0
M  V30 28 C -4.25097 2.05889 -2.01901 0
M  V30 29 C -4.33538 0.876261 -1.32847 0
M  V30 30 N -5.48991 0.194038 -1.31446 0
M  V30 31 C -6.54901 0.679521 -1.97805 0
M  V30 32 N -7.79255 -0.0439597 -1.96947 0
M  V30 33 N -6.48157 1.84035 -2.66121 0
M  V30 34 C -5.36615 2.55997 -2.71155 0
M  V30 35 N -5.22018 3.78049 -3.40408 0
M  V30 36 C -4.4799 0.176192 1.74762 0
M  V30 37 O -4.59818 -1.93287 0.56428 0
M  V30 38 H 8.72432 4.39699 -0.0670493 0
M  V30 39 H 8.88653 1.79953 -2.39557 0
M  V30 40 H 7.12825 2.27733 -2.43252 0
M  V30 41 H 5.48161 1.68101 -0.652306 0
M  V30 42 H 3.58871 0.643377 0.348627 0
M  V30 43 H 5.22928 -3.18474 -0.387643 0
M  V30 44 H 7.18197 -2.13092 -1.4096 0
M  V30 45 H 1.29599 -3.67221 1.44186 0
M  V30 46 H 0.914232 -2.60545 2.8931 0
M  V30 47 H -1.06022 -3.1779 1.25194 0
M  V30 48 H -0.158171 -2.19332 0.0966648 0
M  V30 49 H 0.511185 -0.689735 3.38168 0
M  V30 50 H 0.0205482 0.781006 2.51779 0
M  V30 51 H 1.33794 0.282434 0.61919 0
M  V30 52 H 2.29035 0.186135 2.17079 0
M  V30 53 H -2.92001 -2.79907 1.96642 0
M  V30 54 H -3.75 -1.70569 3.07263 0
M  V30 55 H -2.58064 -1.3545 -0.655021 0
M  V30 56 H -1.41849 0.884089 0.99304 0
M  V30 57 H -0.645215 -0.181528 -0.230921 0
M  V30 58 H -1.29582 1.78653 -0.828129 0
M  V30 59 H -8.67315 0.509119 -2.05091 0
M  V30 60 H -7.86089 -1.06437 -1.88826 0
M  V30 61 H -4.59242 4.50983 -2.99518 0
M  V30 62 H -5.7021 3.99007 -4.29447 0
M  V30 63 H -4.22976 0.269893 2.84532 0
M  V30 64 H -5.57156 -0.0503707 1.72563 0
M  V30 65 H -4.2528 1.17074 1.32544 0
M  V30 66 H -4.03615 -2.73806 0.4154 0
M  V30 END ATOM
M  V30 BEGIN BOND
M  V30 1 1 1 2
M  V30 2 2 2 3
M  V30 3 1 2 4
M  V30 4 1 4 5
M  V30 5 1 5 6
M  V30 6 2 6 7
M  V30 7 1 7 8
M  V30 8 2 8 9
M  V30 9 1 9 10
M  V30 10 2 10 11
M  V30 11 1 9 12
M  V30 12 2 12 13
M  V30 13 1 12 14
M  V30 14 1 14 15
M  V30 15 1 15 16
M  V30 16 1 16 17
M  V30 17 1 17 18
M  V30 18 1 18 19
M  V30 19 1 17 20
M  V30 20 1 20 21
M  V30 21 1 21 22
M  V30 22 1 22 23
M  V30 23 1 23 24
M  V30 24 1 23 25
M  V30 25 1 25 26
M  V30 26 2 26 27
M  V30 27 1 27 28
M  V30 28 2 28 29
M  V30 29 1 29 30
M  V30 30 2 30 31
M  V30 31 1 31 32
M  V30 32 1 31 33
M  V30 33 2 33 34
M  V30 34 1 34 35
M  V30 35 1 22 36
M  V30 36 1 22 37 CFG=3
M  V30 37 1 11 6
M  V30 38 1 19 14
M  V30 39 1 29 25
M  V30 40 1 24 17
M  V30 41 1 34 28
M  V30 42 1 1 38
M  V30 43 1 4 39
M  V30 44 1 4 40
M  V30 45 1 7 41
M  V30 46 1 8 42
M  V30 47 1 10 43
M  V30 48 1 11 44
M  V30 49 1 15 45
M  V30 50 1 15 46
M  V30 51 1 16 47
M  V30 52 1 16 48
M  V30 53 1 18 49
M  V30 54 1 18 50
M  V30 55 1 19 51
M  V30 56 1 19 52
M  V30 57 1 21 53
M  V30 58 1 21 54
M  V30 59 1 23 55 CFG=3
M  V30 60 1 24 56
M  V30 61 1 24 57
M  V30 62 1 26 58
M  V30 63 1 32 59
M  V30 64 1 32 60
M  V30 65 1 35 61
M  V30 66 1 35 62
M  V30 67 1 36 63
M  V30 68 1 36 64
M  V30 69 1 36 65
M  V30 70 1 37 66
M  V30 END BOND
M  V30 END CTAB
M  END
