
     RDKit          3D

  0  0  0  0  0  0  0  0  0  0999 V3000
M  V30 BEGIN CTAB
M  V30 COUNTS 43 46 0 0 0
M  V30 BEGIN ATOM
M  V30 1 N 5.8379 1.21735 -2.03753 0
M  V30 2 C 4.64465 1.01783 -1.29351 0
M  V30 3 N 4.21873 -0.216777 -0.947874 0
M  V30 4 C 3.08205 -0.405152 -0.23925 0
M  V30 5 C 2.67351 -1.67525 0.0981733 0
M  V30 6 C 1.51403 -1.85287 0.82 0
M  V30 7 C 0.790373 -0.741011 1.18637 0
M  V30 8 C 1.20534 0.514938 0.845988 0
M  V30 9 C 2.3739 0.723425 0.116477 0
M  V30 10 C 2.78279 1.9966 -0.221384 0
M  V30 11 N 2.03256 3.14435 0.158779 0
M  V30 12 N 3.92237 2.11274 -0.926806 0
M  V30 13 S -0.63547 -0.958967 2.14387 0
M  V30 14 O -0.188781 -1.92883 3.26028 0
M  V30 15 O -0.99949 0.288281 2.90395 0
M  V30 16 C -1.99012 -1.65214 1.34249 0
M  V30 17 C -2.46714 -2.90611 1.77908 0
M  V30 18 C -3.51514 -3.56552 1.1761 0
M  V30 19 C -4.1481 -2.99604 0.090582 0
M  V30 20 C -3.71996 -1.78036 -0.366894 0
M  V30 21 C -2.63385 -1.11473 0.272711 0
M  V30 22 C -2.28006 0.199568 -0.246844 0
M  V30 23 C -1.72935 0.237861 -1.52814 0
M  V30 24 C -1.4115 1.42586 -2.145 0
M  V30 25 C -1.63062 2.62818 -1.50708 0
M  V30 26 C -2.17436 2.59881 -0.242836 0
M  V30 27 C -2.49711 1.39271 0.38191 0
M  V30 28 H 5.85391 1.94845 -2.77391 0
M  V30 29 H 6.68506 0.648701 -1.85743 0
M  V30 30 H 3.22411 -2.56392 -0.177644 0
M  V30 31 H 1.18036 -2.86856 1.0941 0
M  V30 32 H 0.64085 1.41879 1.12926 0
M  V30 33 H 1.55836 3.7777 -0.523028 0
M  V30 34 H 1.92967 3.39726 1.16713 0
M  V30 35 H -1.94904 -3.32888 2.63702 0
M  V30 36 H -3.82813 -4.53777 1.57393 0
M  V30 37 H -4.96515 -3.53745 -0.360367 0
M  V30 38 H -4.18318 -1.29582 -1.21171 0
M  V30 39 H -1.55544 -0.699687 -2.03227 0
M  V30 40 H -0.984805 1.41019 -3.14252 0
M  V30 41 H -1.36819 3.5467 -2.02159 0
M  V30 42 H -2.35599 3.54737 0.280806 0
M  V30 43 H -2.93956 1.43218 1.34461 0
M  V30 END ATOM
M  V30 BEGIN BOND
M  V30 1 1 1 2
M  V30 2 2 2 3
M  V30 3 1 3 4
M  V30 4 2 4 5
M  V30 5 1 5 6
M  V30 6 2 6 7
M  V30 7 1 7 8
M  V30 8 2 8 9
M  V30 9 1 9 10
M  V30 10 1 10 11
M  V30 11 2 10 12
M  V30 12 1 7 13
M  V30 13 2 13 14
M  V30 14 2 13 15
M  V30 15 1 13 16
M  V30 16 2 16 17
M  V30 17 1 17 18
M  V30 18 2 18 19
M  V30 19 1 19 20
M  V30 20 2 20 21
M  V30 21 1 21 22
M  V30 22 2 22 23
M  V30 23 1 23 24
M  V30 24 2 24 25
M  V30 25 1 25 26
M  V30 26 2 26 27
M  V30 27 1 12 2
M  V30 28 1 21 16
M  V30 29 1 27 22
M  V30 30 1 9 4
M  V30 31 1 1 28
M  V30 32 1 1 29
M  V30 33 1 5 30
M  V30 34 1 6 31
M  V30 35 1 8 32
M  V30 36 1 11 33
M  V30 37 1 11 34
M  V30 38 1 17 35
M  V30 39 1 18 36
M  V30 40 1 19 37
M  V30 41 1 20 38
M  V30 42 1 23 39
M  V30 43 1 24 40
M  V30 44 1 25 41
M  V30 45 1 26 42
M  V30 46 1 27 43
M  V30 END BOND
M  V30 END CTAB
M  END
