
     RDKit          3D

  0  0  0  0  0  0  0  0  0  0999 V3000
M  V30 BEGIN CTAB
M  V30 COUNTS 29 30 0 0 0
M  V30 BEGIN ATOM
M  V30 1 O -0.319446 1.76673 -0.916786 0
M  V30 2 C -0.367187 1.01573 0.277976 0
M  V30 3 C -1.30877 -0.057809 0.116575 0
M  V30 4 C -1.24462 -1.28931 0.723885 0
M  V30 5 C -2.22167 -2.23256 0.506713 0
M  V30 6 C -3.28837 -1.95192 -0.330195 0
M  V30 7 N -3.32877 -0.731514 -0.915812 0
M  V30 8 C -2.39835 0.213705 -0.730734 0
M  V30 9 N -2.52831 1.4768 -1.39458 0
M  V30 10 C 0.956143 0.829383 0.870395 0
M  V30 11 C 2.0079 0.154104 0.0622553 0
M  V30 12 N 2.41106 0.712087 -1.20993 0
M  V30 13 C 3.25978 -0.160261 0.912285 0
M  V30 14 C 2.42914 -1.24126 0.356989 0
M  V30 15 H -0.17507 2.71559 -0.737673 0
M  V30 16 H -0.908677 1.76797 0.98345 0
M  V30 17 H -0.448042 -1.55111 1.39232 0
M  V30 18 H -2.20986 -3.22805 0.970359 0
M  V30 19 H -4.05228 -2.6977 -0.496719 0
M  V30 20 H -2.87066 2.32046 -0.880743 0
M  V30 21 H -2.29503 1.61615 -2.39752 0
M  V30 22 H 0.89591 0.331513 1.86088 0
M  V30 23 H 1.3583 1.85935 1.12236 0
M  V30 24 H 1.96701 0.25486 -2.02444 0
M  V30 25 H 2.39646 1.7476 -1.23703 0
M  V30 26 H 3.24293 0.0740508 1.9899 0
M  V30 27 H 4.2608 0.0143195 0.473153 0
M  V30 28 H 2.90749 -1.86129 -0.434308 0
M  V30 29 H 1.87219 -1.86764 1.08696 0
M  V30 END ATOM
M  V30 BEGIN BOND
M  V30 1 1 1 2
M  V30 2 1 2 3
M  V30 3 2 3 4
M  V30 4 1 4 5
M  V30 5 2 5 6
M  V30 6 1 6 7
M  V30 7 2 7 8
M  V30 8 1 8 9
M  V30 9 1 2 10
M  V30 10 1 10 11
M  V30 11 1 11 12
M  V30 12 1 11 13
M  V30 13 1 13 14
M  V30 14 1 8 3
M  V30 15 1 14 11
M  V30 16 1 1 15
M  V30 17 1 2 16
M  V30 18 1 4 17
M  V30 19 1 5 18
M  V30 20 1 6 19
M  V30 21 1 9 20
M  V30 22 1 9 21
M  V30 23 1 10 22
M  V30 24 1 10 23
M  V30 25 1 12 24
M  V30 26 1 12 25
M  V30 27 1 13 26
M  V30 28 1 13 27
M  V30 29 1 14 28
M  V30 30 1 14 29
M  V30 END BOND
M  V30 END CTAB
M  END
