
     RDKit          3D

  0  0  0  0  0  0  0  0  0  0999 V3000
M  V30 BEGIN CTAB
M  V30 COUNTS 22 22 0 0 0
M  V30 BEGIN ATOM
M  V30 1 C -1.26573 1.702 -0.405992 0
M  V30 2 C -0.479519 0.496992 -0.130986 0
M  V30 3 C 0.880808 0.571149 0.0687068 0
M  V30 4 N 1.53291 1.82718 0.00836118 0
M  V30 5 C 1.64456 -0.542427 0.328558 0
M  V30 6 N 3.06496 -0.453446 0.535571 0
M  V30 7 C 0.993203 -1.76317 0.384518 0
M  V30 8 C -0.37075 -1.83957 0.18456 0
M  V30 9 Br -1.26954 -3.53091 0.262673 0
M  V30 10 C -1.1389 -0.723181 -0.0763313 0
M  V30 11 C -2.5988 -0.757359 -0.296445 0
M  V30 12 H -0.652239 2.57278 -0.710831 0
M  V30 13 H -1.81129 2.03952 0.523064 0
M  V30 14 H -1.99641 1.55392 -1.25413 0
M  V30 15 H 2.29469 1.94595 -0.692958 0
M  V30 16 H 1.31843 2.65189 0.607252 0
M  V30 17 H 3.42031 0.0359294 1.38456 0
M  V30 18 H 3.72302 -0.875416 -0.159022 0
M  V30 19 H 1.59783 -2.64049 0.589696 0
M  V30 20 H -2.74659 -0.981121 -1.38791 0
M  V30 21 H -3.01935 0.227609 -0.0603726 0
M  V30 22 H -3.12159 -1.51784 0.297462 0
M  V30 END ATOM
M  V30 BEGIN BOND
M  V30 1 1 1 2
M  V30 2 2 2 3
M  V30 3 1 3 4
M  V30 4 1 3 5
M  V30 5 1 5 6
M  V30 6 2 5 7
M  V30 7 1 7 8
M  V30 8 1 8 9
M  V30 9 2 8 10
M  V30 10 1 10 11
M  V30 11 1 10 2
M  V30 12 1 1 12
M  V30 13 1 1 13
M  V30 14 1 1 14
M  V30 15 1 4 15
M  V30 16 1 4 16
M  V30 17 1 6 17
M  V30 18 1 6 18
M  V30 19 1 7 19
M  V30 20 1 11 20
M  V30 21 1 11 21
M  V30 22 1 11 22
M  V30 END BOND
M  V30 END CTAB
M  END
