
     RDKit          3D

  0  0  0  0  0  0  0  0  0  0999 V3000
M  V30 BEGIN CTAB
M  V30 COUNTS 16 15 0 0 0
M  V30 BEGIN ATOM
M  V30 1 C -1.68491 -0.918103 -0.766912 0
M  V30 2 C -1.08758 0.467978 -0.564271 0
M  V30 3 N 0.0749346 0.391828 0.2749 0
M  V30 4 N 0.0544401 0.933027 1.55901 0
M  V30 5 C 1.24491 -0.236402 -0.199833 0
M  V30 6 N 2.43044 -0.3603 0.557878 0
M  V30 7 S 1.19083 -0.84588 -1.72747 0
M  V30 8 H -2.80258 -0.889361 -0.62806 0
M  V30 9 H -1.22209 -1.68841 -0.112504 0
M  V30 10 H -1.50149 -1.2275 -1.81506 0
M  V30 11 H -1.87296 1.15284 -0.131269 0
M  V30 12 H -0.859269 0.920525 -1.56129 0
M  V30 13 H -0.656463 1.71774 1.63888 0
M  V30 14 H 0.980265 1.39732 1.79959 0
M  V30 15 H 2.41295 -0.883986 1.44482 0
M  V30 16 H 3.29857 0.0686906 0.231586 0
M  V30 END ATOM
M  V30 BEGIN BOND
M  V30 1 1 1 2
M  V30 2 1 2 3
M  V30 3 1 3 4
M  V30 4 1 3 5
M  V30 5 1 5 6
M  V30 6 2 5 7
M  V30 7 1 1 8
M  V30 8 1 1 9
M  V30 9 1 1 10
M  V30 10 1 2 11
M  V30 11 1 2 12
M  V30 12 1 4 13
M  V30 13 1 4 14
M  V30 14 1 6 15
M  V30 15 1 6 16
M  V30 END BOND
M  V30 END CTAB
M  END
