
     RDKit          3D

  0  0  0  0  0  0  0  0  0  0999 V3000
M  V30 BEGIN CTAB
M  V30 COUNTS 45 48 0 0 0
M  V30 BEGIN ATOM
M  V30 1 C -0.497633 -2.72406 2.01633 0
M  V30 2 C 0.595326 -1.70159 2.15741 0
M  V30 3 N 0.559049 -0.707575 1.07005 0
M  V30 4 C -0.489483 0.263128 1.00808 0
M  V30 5 C -1.77185 -0.249242 0.44284 0
M  V30 6 C -1.79456 -0.92254 -0.745738 0
M  V30 7 C -2.9948 -1.38873 -1.25209 0
M  V30 8 C -4.18587 -1.19384 -0.586782 0
M  V30 9 C -4.18278 -0.514375 0.618318 0
M  V30 10 C -2.97141 -0.059092 1.10127 0
M  V30 11 C -0.0973721 1.51905 0.273634 0
M  V30 12 C 0.939018 1.5424 -0.654435 0
M  V30 13 C 1.17932 2.69128 -1.38444 0
M  V30 14 C 0.404352 3.83697 -1.20915 0
M  V30 15 C -0.606531 3.80296 -0.293348 0
M  V30 16 N -1.39901 4.957 -0.109935 0
M  V30 17 C -0.857651 2.65729 0.442595 0
M  V30 18 C 1.81274 0.400601 -0.760892 0
M  V30 19 C 1.5877 -0.690665 0.102692 0
M  V30 20 C 2.43271 -1.78124 -0.0356776 0
M  V30 21 C 3.4503 -1.82766 -0.958749 0
M  V30 22 N 4.26599 -2.99925 -1.01882 0
M  V30 23 C 3.62052 -0.741636 -1.7663 0
M  V30 24 C 2.81237 0.381687 -1.68258 0
M  V30 25 H -0.568454 -3.15698 1.02034 0
M  V30 26 H -1.45248 -2.39958 2.47524 0
M  V30 27 H -0.178175 -3.59044 2.68677 0
M  V30 28 H 1.54101 -2.20159 2.28599 0
M  V30 29 H 0.317514 -1.15235 3.13165 0
M  V30 30 H -0.70939 0.589975 2.04546 0
M  V30 31 H -0.901695 -1.09546 -1.29414 0
M  V30 32 H -2.99782 -1.91189 -2.18159 0
M  V30 33 H -5.12446 -1.55397 -0.973952 0
M  V30 34 H -5.13014 -0.361871 1.14841 0
M  V30 35 H -2.9703 0.473994 2.04789 0
M  V30 36 H 1.96947 2.72432 -2.10028 0
M  V30 37 H 0.63093 4.70565 -1.80091 0
M  V30 38 H -1.3658 5.4864 0.777948 0
M  V30 39 H -2.03955 5.31805 -0.846712 0
M  V30 40 H -1.67382 2.66881 1.1642 0
M  V30 41 H 2.28338 -2.63786 0.596021 0
M  V30 42 H 5.19081 -3.00376 -0.561429 0
M  V30 43 H 3.89954 -3.83609 -1.53508 0
M  V30 44 H 4.42579 -0.785603 -2.49225 0
M  V30 45 H 3.0432 1.16938 -2.36787 0
M  V30 END ATOM
M  V30 BEGIN BOND
M  V30 1 1 1 2
M  V30 2 1 2 3
M  V30 3 1 3 4
M  V30 4 1 4 5
M  V30 5 2 5 6
M  V30 6 1 6 7
M  V30 7 2 7 8
M  V30 8 1 8 9
M  V30 9 2 9 10
M  V30 10 1 4 11
M  V30 11 2 11 12
M  V30 12 1 12 13
M  V30 13 2 13 14
M  V30 14 1 14 15
M  V30 15 1 15 16
M  V30 16 2 15 17
M  V30 17 1 12 18
M  V30 18 2 18 19
M  V30 19 1 19 20
M  V30 20 2 20 21
M  V30 21 1 21 22
M  V30 22 1 21 23
M  V30 23 2 23 24
M  V30 24 1 19 3
M  V30 25 1 10 5
M  V30 26 1 17 11
M  V30 27 1 24 18
M  V30 28 1 1 25
M  V30 29 1 1 26
M  V30 30 1 1 27
M  V30 31 1 2 28
M  V30 32 1 2 29
M  V30 33 1 4 30
M  V30 34 1 6 31
M  V30 35 1 7 32
M  V30 36 1 8 33
M  V30 37 1 9 34
M  V30 38 1 10 35
M  V30 39 1 13 36
M  V30 40 1 14 37
M  V30 41 1 16 38
M  V30 42 1 16 39
M  V30 43 1 17 40
M  V30 44 1 20 41
M  V30 45 1 22 42
M  V30 46 1 22 43
M  V30 47 1 23 44
M  V30 48 1 24 45
M  V30 END BOND
M  V30 END CTAB
M  END
