
     RDKit          3D

  0  0  0  0  0  0  0  0  0  0999 V3000
M  V30 BEGIN CTAB
M  V30 COUNTS 42 43 0 0 0
M  V30 BEGIN ATOM
M  V30 1 C 4.71925 1.34947 -0.391456 0
M  V30 2 C 3.99014 0.221094 -1.0391 0
M  V30 3 C 3.26579 -0.71776 -0.162925 0
M  V30 4 C 2.16211 -0.203151 0.685051 0
M  V30 5 C 1.07006 0.420611 -0.0675687 0
M  V30 6 O 1.39707 1.48593 -0.699391 0
M  V30 7 N -0.266989 -0.00146333 -0.177017 0
M  V30 8 C -1.25009 0.764319 -0.989964 0
M  V30 9 C -2.47638 0.473242 -0.225531 0
M  V30 10 C -2.30401 -1.06734 -0.201589 0
M  V30 11 C -0.959107 -1.15055 0.400228 0
M  V30 12 C -3.48548 -1.4066 0.589981 0
M  V30 13 C -4.56171 -0.527769 -0.074508 0
M  V30 14 C -3.78075 0.500757 -0.913514 0
M  V30 15 N -4.44318 1.77121 -0.926098 0
M  V30 16 N 1.58826 -1.40218 1.34475 0
M  V30 17 C 2.69994 0.633814 1.80599 0
M  V30 18 H 5.67181 1.60594 -0.955481 0
M  V30 19 H 5.06737 1.09525 0.627407 0
M  V30 20 H 4.14029 2.30985 -0.374199 0
M  V30 21 H 4.783 -0.390974 -1.57432 0
M  V30 22 H 3.37919 0.623677 -1.88165 0
M  V30 23 H 4.03863 -1.17753 0.530284 0
M  V30 24 H 2.90495 -1.62024 -0.739193 0
M  V30 25 H -0.987781 1.83964 -0.98919 0
M  V30 26 H -1.33168 0.347789 -1.99963 0
M  V30 27 H -2.48962 0.865847 0.801943 0
M  V30 28 H -2.30294 -1.40916 -1.23365 0
M  V30 29 H -0.481247 -2.0807 0.0315954 0
M  V30 30 H -0.943221 -1.16891 1.50162 0
M  V30 31 H -3.34593 -1.0958 1.64135 0
M  V30 32 H -3.76061 -2.47405 0.52689 0
M  V30 33 H -5.0633 0.0637769 0.718594 0
M  V30 34 H -5.24075 -1.11685 -0.68832 0
M  V30 35 H -3.66556 0.0849585 -1.93066 0
M  V30 36 H -4.4819 2.10037 -1.92589 0
M  V30 37 H -5.45278 1.70928 -0.610259 0
M  V30 38 H 1.86412 -1.46858 2.32864 0
M  V30 39 H 1.78461 -2.26171 0.786813 0
M  V30 40 H 3.60358 0.134176 2.20747 0
M  V30 41 H 1.99941 0.67585 2.6769 0
M  V30 42 H 2.94542 1.66446 1.56558 0
M  V30 END ATOM
M  V30 BEGIN BOND
M  V30 1 1 1 2
M  V30 2 1 2 3
M  V30 3 1 3 4
M  V30 4 1 4 5
M  V30 5 2 5 6
M  V30 6 1 5 7
M  V30 7 1 7 8
M  V30 8 1 8 9
M  V30 9 1 9 10
M  V30 10 1 10 11
M  V30 11 1 10 12
M  V30 12 1 12 13
M  V30 13 1 13 14
M  V30 14 1 14 15
M  V30 15 1 4 16
M  V30 16 1 4 17
M  V30 17 1 11 7
M  V30 18 1 14 9
M  V30 19 1 1 18
M  V30 20 1 1 19
M  V30 21 1 1 20
M  V30 22 1 2 21
M  V30 23 1 2 22
M  V30 24 1 3 23
M  V30 25 1 3 24
M  V30 26 1 8 25
M  V30 27 1 8 26
M  V30 28 1 9 27
M  V30 29 1 10 28
M  V30 30 1 11 29
M  V30 31 1 11 30
M  V30 32 1 12 31
M  V30 33 1 12 32
M  V30 34 1 13 33
M  V30 35 1 13 34
M  V30 36 1 14 35
M  V30 37 1 15 36
M  V30 38 1 15 37
M  V30 39 1 16 38
M  V30 40 1 16 39
M  V30 41 1 17 40
M  V30 42 1 17 41
M  V30 43 1 17 42
M  V30 END BOND
M  V30 END CTAB
M  END
