
     RDKit          3D

  0  0  0  0  0  0  0  0  0  0999 V3000
M  V30 BEGIN CTAB
M  V30 COUNTS 35 36 0 0 0
M  V30 BEGIN ATOM
M  V30 1 N 5.87109 2.03211 0.782887 0
M  V30 2 C 5.16051 0.910099 0.291194 0
M  V30 3 C 5.76656 -0.336171 0.313252 0
M  V30 4 C 5.02736 -1.38858 -0.17753 0
M  V30 5 N 5.58285 -2.71518 -0.190449 0
M  V30 6 N 3.78165 -1.26145 -0.661867 0
M  V30 7 C 3.2127 -0.0505117 -0.67518 0
M  V30 8 N 3.91618 0.990782 -0.200947 0
M  V30 9 S 1.57175 0.166599 -1.30434 0
M  V30 10 C 0.319526 -0.0414997 0.00612544 0
M  V30 11 C -1.03273 0.164599 -0.634662 0
M  V30 12 O -2.08857 0.0251782 0.298855 0
M  V30 13 C -3.37781 0.193573 -0.176099 0
M  V30 14 C -3.70168 0.485168 -1.48391 0
M  V30 15 C -5.00353 0.642321 -1.9018 0
M  V30 16 C -6.04679 0.511498 -1.0126 0
M  V30 17 C -5.74483 0.220136 0.299559 0
M  V30 18 C -4.43357 0.067663 0.692812 0
M  V30 19 C -4.1341 -0.24835 2.12324 0
M  V30 20 H 6.72175 1.90084 1.36243 0
M  V30 21 H 5.56537 3.00389 0.580308 0
M  V30 22 H 6.76237 -0.504051 0.688479 0
M  V30 23 H 5.97318 -3.12522 0.683554 0
M  V30 24 H 5.57273 -3.22937 -1.10071 0
M  V30 25 H 0.438812 -1.0571 0.419356 0
M  V30 26 H 0.456115 0.74319 0.768489 0
M  V30 27 H -1.12228 -0.543539 -1.48807 0
M  V30 28 H -1.02417 1.18767 -1.08966 0
M  V30 29 H -2.85849 0.586223 -2.18026 0
M  V30 30 H -5.19797 0.874545 -2.9594 0
M  V30 31 H -7.07385 0.637886 -1.35369 0
M  V30 32 H -6.57401 0.118661 0.994334 0
M  V30 33 H -5.01296 -0.797778 2.51849 0
M  V30 34 H -4.06263 0.699012 2.68205 0
M  V30 35 H -3.21054 -0.862851 2.21877 0
M  V30 END ATOM
M  V30 BEGIN BOND
M  V30 1 1 1 2
M  V30 2 2 2 3
M  V30 3 1 3 4
M  V30 4 1 4 5
M  V30 5 2 4 6
M  V30 6 1 6 7
M  V30 7 2 7 8
M  V30 8 1 7 9
M  V30 9 1 9 10
M  V30 10 1 10 11
M  V30 11 1 11 12
M  V30 12 1 12 13
M  V30 13 2 13 14
M  V30 14 1 14 15
M  V30 15 2 15 16
M  V30 16 1 16 17
M  V30 17 2 17 18
M  V30 18 1 18 19
M  V30 19 1 8 2
M  V30 20 1 18 13
M  V30 21 1 1 20
M  V30 22 1 1 21
M  V30 23 1 3 22
M  V30 24 1 5 23
M  V30 25 1 5 24
M  V30 26 1 10 25
M  V30 27 1 10 26
M  V30 28 1 11 27
M  V30 29 1 11 28
M  V30 30 1 14 29
M  V30 31 1 15 30
M  V30 32 1 16 31
M  V30 33 1 17 32
M  V30 34 1 19 33
M  V30 35 1 19 34
M  V30 36 1 19 35
M  V30 END BOND
M  V30 END CTAB
M  END
