
     RDKit          3D

  0  0  0  0  0  0  0  0  0  0999 V3000
M  V30 BEGIN CTAB
M  V30 COUNTS 25 25 0 0 0
M  V30 BEGIN ATOM
M  V30 1 N -3.36287 -0.753553 0.360828 0
M  V30 2 C -2.70958 -0.243997 -0.830121 0
M  V30 3 C -1.54628 0.648262 -0.477937 0
M  V30 4 C -0.489886 -0.030951 0.31726 0
M  V30 5 C 0.64084 0.927137 0.630598 0
M  V30 6 C 1.42194 0.328065 -0.493262 0
M  V30 7 C 0.506162 -0.862269 -0.462127 0
M  V30 8 C 2.84665 0.0811873 -0.0927762 0
M  V30 9 N 2.97841 -0.816742 1.02032 0
M  V30 10 H -3.19618 -0.0642293 1.12172 0
M  V30 11 H -4.39577 -0.792143 0.205657 0
M  V30 12 H -3.45473 0.390687 -1.3523 0
M  V30 13 H -2.42218 -1.09921 -1.46195 0
M  V30 14 H -1.11912 1.1511 -1.3515 0
M  V30 15 H -1.97409 1.46894 0.169761 0
M  V30 16 H -0.900526 -0.554291 1.21811 0
M  V30 17 H 0.399385 1.99244 0.416342 0
M  V30 18 H 1.05639 0.83564 1.63996 0
M  V30 19 H 1.37815 0.893757 -1.43947 0
M  V30 20 H 0.0547978 -1.10114 -1.46676 0
M  V30 21 H 0.855315 -1.74114 0.0917012 0
M  V30 22 H 3.26998 1.08115 0.211752 0
M  V30 23 H 3.48424 -0.289909 -0.907718 0
M  V30 24 H 3.99491 -1.04441 1.12456 0
M  V30 25 H 2.68404 -0.404384 1.93107 0
M  V30 END ATOM
M  V30 BEGIN BOND
M  V30 1 1 1 2
M  V30 2 1 2 3
M  V30 3 1 3 4
M  V30 4 1 4 5
M  V30 5 1 5 6
M  V30 6 1 6 7
M  V30 7 1 6 8
M  V30 8 1 8 9
M  V30 9 1 7 4
M  V30 10 1 1 10
M  V30 11 1 1 11
M  V30 12 1 2 12
M  V30 13 1 2 13
M  V30 14 1 3 14
M  V30 15 1 3 15
M  V30 16 1 4 16
M  V30 17 1 5 17
M  V30 18 1 5 18
M  V30 19 1 6 19
M  V30 20 1 7 20
M  V30 21 1 7 21
M  V30 22 1 8 22
M  V30 23 1 8 23
M  V30 24 1 9 24
M  V30 25 1 9 25
M  V30 END BOND
M  V30 END CTAB
M  END
