
     RDKit          3D

  0  0  0  0  0  0  0  0  0  0999 V3000
M  V30 BEGIN CTAB
M  V30 COUNTS 21 20 0 0 0
M  V30 BEGIN ATOM
M  V30 1 C 2.73133 0.440632 0.278399 0
M  V30 2 C 1.50307 -0.43857 0.0707103 0
M  V30 3 C 0.301626 0.454646 0.169014 0
M  V30 4 C -1.00059 -0.274569 -0.0161817 0
M  V30 5 N -1.09918 -0.920289 -1.30184 0
M  V30 6 N -1.19225 -1.19523 1.06909 0
M  V30 7 C -2.08882 0.737902 0.0585244 0
M  V30 8 O -2.97535 0.946425 -0.960841 0
M  V30 9 O -2.15152 1.40373 1.12762 0
M  V30 10 H 3.48245 0.205734 -0.491496 0
M  V30 11 H 3.13364 0.271418 1.30606 0
M  V30 12 H 2.48539 1.51337 0.207771 0
M  V30 13 H 1.59379 -0.962632 -0.88785 0
M  V30 14 H 1.44508 -1.17558 0.889884 0
M  V30 15 H 0.405385 1.29987 -0.546942 0
M  V30 16 H 0.290069 0.869102 1.2086 0
M  V30 17 H -0.307039 -1.54818 -1.52189 0
M  V30 18 H -1.20832 -0.170794 -2.01591 0
M  V30 19 H -1.68415 -2.06646 0.81574 0
M  V30 20 H -0.414686 -1.28102 1.72129 0
M  V30 21 H -3.24992 1.89049 -1.17976 0
M  V30 END ATOM
M  V30 BEGIN BOND
M  V30 1 1 1 2
M  V30 2 1 2 3
M  V30 3 1 3 4
M  V30 4 1 4 5
M  V30 5 1 4 6
M  V30 6 1 4 7
M  V30 7 1 7 8
M  V30 8 2 7 9
M  V30 9 1 1 10
M  V30 10 1 1 11
M  V30 11 1 1 12
M  V30 12 1 2 13
M  V30 13 1 2 14
M  V30 14 1 3 15
M  V30 15 1 3 16
M  V30 16 1 5 17
M  V30 17 1 5 18
M  V30 18 1 6 19
M  V30 19 1 6 20
M  V30 20 1 8 21
M  V30 END BOND
M  V30 END CTAB
M  END
