
     RDKit          3D

  0  0  0  0  0  0  0  0  0  0999 V3000
M  V30 BEGIN CTAB
M  V30 COUNTS 20 20 0 0 0
M  V30 BEGIN ATOM
M  V30 1 N 4.4845 0.328859 0.889387 0
M  V30 2 C 3.152 -0.0963855 0.609804 0
M  V30 3 N 2.71046 -1.34033 0.675746 0
M  V30 4 C 1.46623 -1.59711 0.394538 0
M  V30 5 C 0.663566 -0.55127 0.0389522 0
M  V30 6 S 1.761 0.762433 0.13068 0
M  V30 7 C -0.786522 -0.602478 -0.324416 0
M  V30 8 N -1.24784 0.731629 -0.634302 0
M  V30 9 S -2.92159 0.595933 -1.04267 0
M  V30 10 O -3.33545 1.65451 -1.99615 0
M  V30 11 O -3.22276 -0.787545 -1.53238 0
M  V30 12 N -3.80793 0.788839 0.449111 0
M  V30 13 H 5.03858 0.925965 0.258036 0
M  V30 14 H 4.92419 0.0176912 1.78476 0
M  V30 15 H 1.05902 -2.62719 0.43848 0
M  V30 16 H -0.88264 -1.26055 -1.20584 0
M  V30 17 H -1.39763 -0.984883 0.518005 0
M  V30 18 H -0.703347 1.14233 -1.4186 0
M  V30 19 H -3.54868 -0.0313953 1.05146 0
M  V30 20 H -3.40516 1.64721 0.915394 0
M  V30 END ATOM
M  V30 BEGIN BOND
M  V30 1 1 1 2
M  V30 2 2 2 3
M  V30 3 1 3 4
M  V30 4 2 4 5
M  V30 5 1 5 6
M  V30 6 1 5 7
M  V30 7 1 7 8
M  V30 8 1 8 9
M  V30 9 2 9 10
M  V30 10 2 9 11
M  V30 11 1 9 12
M  V30 12 1 6 2
M  V30 13 1 1 13
M  V30 14 1 1 14
M  V30 15 1 4 15
M  V30 16 1 7 16
M  V30 17 1 7 17
M  V30 18 1 8 18
M  V30 19 1 12 19
M  V30 20 1 12 20
M  V30 END BOND
M  V30 END CTAB
M  END
