
     RDKit          3D

  0  0  0  0  0  0  0  0  0  0999 V3000
M  V30 BEGIN CTAB
M  V30 COUNTS 23 23 0 0 0
M  V30 BEGIN ATOM
M  V30 1 N -2.84002 1.94177 -0.28185 0
M  V30 2 C -1.83117 0.929359 -0.22602 0
M  V30 3 C -0.511368 1.23514 -0.0758732 0
M  V30 4 C 0.434234 0.231497 -0.0261033 0
M  V30 5 O 1.76352 0.585338 0.12729 0
M  V30 6 C 2.73215 -0.436331 0.178579 0
M  V30 7 C 4.09958 0.195984 0.349073 0
M  V30 8 F 4.31715 1.01384 -0.725183 0
M  V30 9 F 4.09577 0.856754 1.54953 0
M  V30 10 F 5.02373 -0.851593 0.37327 0
M  V30 11 C 0.0826724 -1.07527 -0.124027 0
M  V30 12 C -1.23108 -1.41257 -0.275046 0
M  V30 13 C -2.19145 -0.410747 -0.32642 0
M  V30 14 N -3.5436 -0.736906 -0.480877 0
M  V30 15 Br -1.75927 -3.2558 -0.416519 0
M  V30 16 H -3.3874 2.23092 0.55582 0
M  V30 17 H -3.01467 2.38948 -1.20044 0
M  V30 18 H -0.222603 2.27493 0.00297719 0
M  V30 19 H 2.57259 -1.11171 1.03919 0
M  V30 20 H 2.71685 -1.00198 -0.794749 0
M  V30 21 H 0.823857 -1.85032 -0.0844517 0
M  V30 22 H -4.29123 -0.0140605 -0.478345 0
M  V30 23 H -3.83825 -1.72773 -0.604075 0
M  V30 END ATOM
M  V30 BEGIN BOND
M  V30 1 1 1 2
M  V30 2 2 2 3
M  V30 3 1 3 4
M  V30 4 1 4 5
M  V30 5 1 5 6
M  V30 6 1 6 7
M  V30 7 1 7 8
M  V30 8 1 7 9
M  V30 9 1 7 10
M  V30 10 2 4 11
M  V30 11 1 11 12
M  V30 12 2 12 13
M  V30 13 1 13 14
M  V30 14 1 12 15
M  V30 15 1 13 2
M  V30 16 1 1 16
M  V30 17 1 1 17
M  V30 18 1 3 18
M  V30 19 1 6 19
M  V30 20 1 6 20
M  V30 21 1 11 21
M  V30 22 1 14 22
M  V30 23 1 14 23
M  V30 END BOND
M  V30 END CTAB
M  END
