
     RDKit          3D

  0  0  0  0  0  0  0  0  0  0999 V3000
M  V30 BEGIN CTAB
M  V30 COUNTS 21 22 0 0 0
M  V30 BEGIN ATOM
M  V30 1 N 4.78344 -0.344475 0.160615 0
M  V30 2 C 3.46097 0.163265 0.241019 0
M  V30 3 N 3.02726 1.41717 0.450965 0
M  V30 4 O 1.72792 1.43377 0.44855 0
M  V30 5 C 1.28022 0.235905 0.244526 0
M  V30 6 N 2.3344 -0.585215 0.110136 0
M  V30 7 C -0.148439 -0.112856 0.179908 0
M  V30 8 C -1.12719 0.8385 0.3366 0
M  V30 9 C -2.4911 0.571534 0.286066 0
M  V30 10 N -3.44367 1.61123 0.45778 0
M  V30 11 C -2.88171 -0.740625 0.0629717 0
M  V30 12 C -1.93247 -1.71747 -0.0981445 0
M  V30 13 C -0.577673 -1.40876 -0.0405966 0
M  V30 14 F -2.33701 -3.0075 -0.317569 0
M  V30 15 H 5.17538 -0.577929 -0.765376 0
M  V30 16 H 5.38904 -0.495471 1.01008 0
M  V30 17 H -0.849843 1.87637 0.51293 0
M  V30 18 H -3.11429 2.57848 0.610082 0
M  V30 19 H -4.4564 1.41569 0.432785 0
M  V30 20 H -3.94292 -0.949583 0.023462 0
M  V30 21 H 0.124095 -2.20203 -0.171713 0
M  V30 END ATOM
M  V30 BEGIN BOND
M  V30 1 1 1 2
M  V30 2 2 2 3
M  V30 3 1 3 4
M  V30 4 1 4 5
M  V30 5 2 5 6
M  V30 6 1 5 7
M  V30 7 2 7 8
M  V30 8 1 8 9
M  V30 9 1 9 10
M  V30 10 2 9 11
M  V30 11 1 11 12
M  V30 12 2 12 13
M  V30 13 1 12 14
M  V30 14 1 6 2
M  V30 15 1 13 7
M  V30 16 1 1 15
M  V30 17 1 1 16
M  V30 18 1 8 17
M  V30 19 1 10 18
M  V30 20 1 10 19
M  V30 21 1 11 20
M  V30 22 1 13 21
M  V30 END BOND
M  V30 END CTAB
M  END
