
     RDKit          3D

  0  0  0  0  0  0  0  0  0  0999 V3000
M  V30 BEGIN CTAB
M  V30 COUNTS 21 21 0 0 0
M  V30 BEGIN ATOM
M  V30 1 C -2.774 -0.425214 0.14995 0
M  V30 2 C -1.27896 -0.520961 0.0874494 0
M  V30 3 C -0.480704 0.61557 0.0126443 0
M  V30 4 C 0.90725 0.543346 -0.0641477 0
M  V30 5 N 1.65822 1.75364 -0.129192 0
M  V30 6 C 1.54724 -0.679643 -0.0687688 0
M  V30 7 N 2.96058 -0.766206 -0.145123 0
M  V30 8 C 0.751891 -1.8126 0.00620995 0
M  V30 9 C -0.642942 -1.74442 0.0837078 0
M  V30 10 N -1.15296 1.85796 -0.00385143 0 CHG=1
M  V30 11 O -1.44359 2.5353 -1.16392 0 CHG=-1
M  V30 12 O -1.48432 2.39521 1.08801 0
M  V30 13 H -3.24303 -1.15927 -0.518524 0
M  V30 14 H -3.06423 -0.59957 1.2049 0
M  V30 15 H -3.03871 0.625142 -0.0797265 0
M  V30 16 H 2.29413 1.94836 -0.909143 0
M  V30 17 H 1.54976 2.44265 0.62989 0
M  V30 18 H 3.54355 -0.0411824 0.3272 0
M  V30 19 H 3.4009 -1.52993 -0.656593 0
M  V30 20 H 1.2372 -2.79961 0.0116394 0
M  V30 21 H -1.24727 -2.63855 0.137396 0
M  V30 END ATOM
M  V30 BEGIN BOND
M  V30 1 1 1 2
M  V30 2 2 2 3
M  V30 3 1 3 4
M  V30 4 1 4 5
M  V30 5 2 4 6
M  V30 6 1 6 7
M  V30 7 1 6 8
M  V30 8 2 8 9
M  V30 9 1 3 10
M  V30 10 1 10 11
M  V30 11 2 10 12
M  V30 12 1 9 2
M  V30 13 1 1 13
M  V30 14 1 1 14
M  V30 15 1 1 15
M  V30 16 1 5 16
M  V30 17 1 5 17
M  V30 18 1 7 18
M  V30 19 1 7 19
M  V30 20 1 8 20
M  V30 21 1 9 21
M  V30 END BOND
M  V30 END CTAB
M  END
