
     RDKit          3D

  0  0  0  0  0  0  0  0  0  0999 V3000
M  V30 BEGIN CTAB
M  V30 COUNTS 38 40 0 0 0
M  V30 BEGIN ATOM
M  V30 1 O -1.33401 1.57391 -0.0113756 0
M  V30 2 C -0.672557 0.511368 0.147942 0
M  V30 3 C 0.652978 0.31535 -0.524716 0
M  V30 4 C 1.71329 1.0633 0.264144 0
M  V30 5 N 3.01369 0.943909 -0.291209 0
M  V30 6 C 3.57216 1.75415 -1.20209 0
M  V30 7 O 3.03685 2.78322 -1.7377 0
M  V30 8 O 4.76634 1.35091 -1.48366 0
M  V30 9 C 5.06906 0.27785 -0.797605 0
M  V30 10 C 3.93852 0.0107196 -0.0247765 0
M  V30 11 C 3.98244 -1.08191 0.805829 0
M  V30 12 C 5.10176 -1.87753 0.86779 0
M  V30 13 C 6.20342 -1.58256 0.0876361 0
M  V30 14 C 6.19675 -0.502187 -0.752002 0
M  V30 15 Cl 7.60356 -2.62227 0.199289 0
M  V30 16 O -1.22034 -0.460766 0.966146 0
M  V30 17 C -2.43175 -0.403818 1.64137 0
M  V30 18 C -3.62472 -0.247576 0.799961 0
M  V30 19 N -4.17927 -1.28309 0.172822 0
M  V30 20 C -5.28532 -1.10771 -0.593439 0
M  V30 21 N -5.86804 -2.22278 -1.25834 0
M  V30 22 N -5.82238 0.125003 -0.71731 0
M  V30 23 C -5.2763 1.18306 -0.0914584 0
M  V30 24 N -4.18179 0.954982 0.655016 0
M  V30 25 N -5.80172 2.49597 -0.189712 0
M  V30 26 H 0.613945 0.650727 -1.56528 0
M  V30 27 H 0.882231 -0.765053 -0.418216 0
M  V30 28 H 1.64199 0.809283 1.34232 0
M  V30 29 H 1.4101 2.14975 0.205183 0
M  V30 30 H 3.14317 -1.31714 1.4085 0
M  V30 31 H 5.15013 -2.75675 1.52976 0
M  V30 32 H 7.08094 -0.318654 -1.33642 0
M  V30 33 H -2.54801 -1.3899 2.17521 0
M  V30 34 H -2.42485 0.346394 2.48282 0
M  V30 35 H -5.24102 -2.90911 -1.75404 0
M  V30 36 H -6.88406 -2.41698 -1.29386 0
M  V30 37 H -5.20719 3.30446 0.0517887 0
M  V30 38 H -6.76998 2.66145 -0.49905 0
M  V30 END ATOM
M  V30 BEGIN BOND
M  V30 1 2 1 2
M  V30 2 1 2 3
M  V30 3 1 3 4
M  V30 4 1 4 5
M  V30 5 1 5 6
M  V30 6 2 6 7
M  V30 7 1 6 8
M  V30 8 1 8 9
M  V30 9 2 9 10
M  V30 10 1 10 11
M  V30 11 2 11 12
M  V30 12 1 12 13
M  V30 13 2 13 14
M  V30 14 1 13 15
M  V30 15 1 2 16
M  V30 16 1 16 17
M  V30 17 1 17 18
M  V30 18 2 18 19
M  V30 19 1 19 20
M  V30 20 1 20 21
M  V30 21 2 20 22
M  V30 22 1 22 23
M  V30 23 2 23 24
M  V30 24 1 23 25
M  V30 25 1 10 5
M  V30 26 1 24 18
M  V30 27 1 14 9
M  V30 28 1 3 26
M  V30 29 1 3 27
M  V30 30 1 4 28
M  V30 31 1 4 29
M  V30 32 1 11 30
M  V30 33 1 12 31
M  V30 34 1 14 32
M  V30 35 1 17 33
M  V30 36 1 17 34
M  V30 37 1 21 35
M  V30 38 1 21 36
M  V30 39 1 25 37
M  V30 40 1 25 38
M  V30 END BOND
M  V30 END CTAB
M  END
