
     RDKit          3D

  0  0  0  0  0  0  0  0  0  0999 V3000
M  V30 BEGIN CTAB
M  V30 COUNTS 35 36 0 0 0
M  V30 BEGIN ATOM
M  V30 1 N -1.93019 -2.03413 -1.65911 0
M  V30 2 C -2.63803 -1.20271 -0.770465 0
M  V30 3 C -3.94061 -1.49676 -0.38544 0
M  V30 4 C -4.65861 -0.746127 0.521071 0
M  V30 5 C -4.03589 0.372571 1.08127 0
M  V30 6 C -2.74476 0.654026 0.69108 0
M  V30 7 C -2.03961 -0.09151 -0.206709 0
M  V30 8 C -0.658233 0.267869 -0.68351 0 CFG=1
M  V30 9 O -0.419188 1.54092 -0.0805727 0
M  V30 10 C 0.729253 2.16156 -0.322385 0
M  V30 11 C 1.8378 1.82101 0.683469 0
M  V30 12 N 2.39264 0.613693 0.350938 0
M  V30 13 C 1.68961 -0.241011 -0.553576 0
M  V30 14 C 0.331588 -0.605151 0.0867585 0
M  V30 15 S 3.68163 -0.1201 1.08591 0
M  V30 16 O 3.34794 -1.53775 1.52849 0
M  V30 17 O 4.26965 0.645377 2.23727 0
M  V30 18 N 4.94761 -0.290773 -0.122933 0
M  V30 19 H -1.47377 -1.78177 -2.52607 0
M  V30 20 H -1.86394 -3.05793 -1.37571 0
M  V30 21 H -4.397 -2.38179 -0.814185 0
M  V30 22 H -5.66107 -0.984497 0.80923 0
M  V30 23 H -4.56087 0.990626 1.77716 0
M  V30 24 H -2.31035 1.56768 1.15095 0
M  V30 25 H -0.517118 0.293495 -1.72997 0
M  V30 26 H 1.12761 2.1928 -1.35236 0
M  V30 27 H 0.517355 3.28388 -0.121806 0
M  V30 28 H 1.41687 1.91936 1.72174 0
M  V30 29 H 2.59598 2.64959 0.655257 0
M  V30 30 H 1.56477 0.242587 -1.54047 0
M  V30 31 H 2.30233 -1.14033 -0.74581 0
M  V30 32 H 0.29937 -0.38413 1.14255 0
M  V30 33 H 0.216302 -1.66017 -0.0940238 0
M  V30 34 H 5.87238 -0.331054 0.281733 0
M  V30 35 H 4.70855 -1.12935 -0.719793 0
M  V30 END ATOM
M  V30 BEGIN BOND
M  V30 1 1 1 2
M  V30 2 2 2 3
M  V30 3 1 3 4
M  V30 4 2 4 5
M  V30 5 1 5 6
M  V30 6 2 6 7
M  V30 7 1 7 8
M  V30 8 1 8 9
M  V30 9 1 9 10
M  V30 10 1 10 11
M  V30 11 1 11 12
M  V30 12 1 12 13
M  V30 13 1 13 14
M  V30 14 1 12 15
M  V30 15 2 15 16
M  V30 16 2 15 17
M  V30 17 1 15 18
M  V30 18 1 7 2
M  V30 19 1 14 8
M  V30 20 1 1 19
M  V30 21 1 1 20
M  V30 22 1 3 21
M  V30 23 1 4 22
M  V30 24 1 5 23
M  V30 25 1 6 24
M  V30 26 1 8 25 CFG=3
M  V30 27 1 10 26
M  V30 28 1 10 27
M  V30 29 1 11 28
M  V30 30 1 11 29
M  V30 31 1 13 30
M  V30 32 1 13 31
M  V30 33 1 14 32
M  V30 34 1 14 33
M  V30 35 1 18 34
M  V30 36 1 18 35
M  V30 END BOND
M  V30 END CTAB
M  END
