
     RDKit          3D

  0  0  0  0  0  0  0  0  0  0999 V3000
M  V30 BEGIN CTAB
M  V30 COUNTS 25 24 0 0 0
M  V30 BEGIN ATOM
M  V30 1 C -0.680334 0.439669 -1.87155 0
M  V30 2 C -0.647254 0.290066 -0.384442 0
M  V30 3 C 0.313356 -0.775413 -0.0213299 0 CFG=1
M  V30 4 C 1.67949 -0.466835 -0.466507 0
M  V30 5 O 1.90586 -0.2742 -1.68416 0
M  V30 6 N 2.77416 -0.378613 0.462598 0
M  V30 7 N 4.0458 -0.0848597 -0.00423093 0
M  V30 8 N 0.36621 -1.04506 1.40423 0
M  V30 9 C -2.06291 0.00323297 0.0672382 0
M  V30 10 C -2.98014 1.14226 -0.323652 0
M  V30 11 H -0.41165 -0.523436 -2.32881 0
M  V30 12 H -1.69921 0.735266 -2.21727 0
M  V30 13 H 0.0490448 1.19248 -2.17196 0
M  V30 14 H -0.334576 1.2891 0.040203 0
M  V30 15 H -0.0130887 -1.71975 -0.526246 0
M  V30 16 H 2.6077 -0.532586 1.4574 0
M  V30 17 H 4.76968 -0.271368 0.704625 0
M  V30 18 H 4.14468 0.87493 -0.353235 0
M  V30 19 H 1.02189 -1.85011 1.53108 0
M  V30 20 H -0.576249 -1.3468 1.75762 0
M  V30 21 H -2.44196 -0.901001 -0.430995 0
M  V30 22 H -2.1269 -0.0976514 1.17215 0
M  V30 23 H -3.77809 1.25297 0.441827 0
M  V30 24 H -2.42158 2.10065 -0.445059 0
M  V30 25 H -3.50392 0.947059 -1.2819 0
M  V30 END ATOM
M  V30 BEGIN BOND
M  V30 1 1 1 2
M  V30 2 1 2 3
M  V30 3 1 3 4
M  V30 4 2 4 5
M  V30 5 1 4 6
M  V30 6 1 6 7
M  V30 7 1 3 8
M  V30 8 1 2 9
M  V30 9 1 9 10
M  V30 10 1 1 11
M  V30 11 1 1 12
M  V30 12 1 1 13
M  V30 13 1 2 14
M  V30 14 1 3 15 CFG=3
M  V30 15 1 6 16
M  V30 16 1 7 17
M  V30 17 1 7 18
M  V30 18 1 8 19
M  V30 19 1 8 20
M  V30 20 1 9 21
M  V30 21 1 9 22
M  V30 22 1 10 23
M  V30 23 1 10 24
M  V30 24 1 10 25
M  V30 END BOND
M  V30 END CTAB
M  END
