
     RDKit          3D

  0  0  0  0  0  0  0  0  0  0999 V3000
M  V30 BEGIN CTAB
M  V30 COUNTS 32 34 0 0 0
M  V30 BEGIN ATOM
M  V30 1 N 5.55092 0.606105 -1.63892 0
M  V30 2 C 4.31882 0.338575 -0.966767 0
M  V30 3 N 3.49182 1.33949 -0.618806 0
M  V30 4 C 2.32615 1.08202 0.0174812 0
M  V30 5 C 1.46889 2.12485 0.377721 0
M  V30 6 C 0.289577 1.83464 1.02406 0
M  V30 7 C -0.0628195 0.536681 1.32307 0
M  V30 8 C 0.754196 -0.518423 0.9851 0
M  V30 9 C 1.93397 -0.192873 0.335428 0
M  V30 10 C 2.79561 -1.22279 -0.0282381 0
M  V30 11 N 2.42854 -2.54863 0.280919 0
M  V30 12 N 3.94021 -0.924458 -0.657007 0
M  V30 13 S -1.58737 0.213334 2.15407 0
M  V30 14 O -1.46144 -0.979385 3.06639 0
M  V30 15 C -2.835 -0.0153751 0.926036 0
M  V30 16 C -3.13502 -1.2375 0.385829 0
M  V30 17 C -4.11488 -1.37069 -0.568888 0
M  V30 18 C -4.8186 -0.247865 -0.998892 0
M  V30 19 Cl -6.07541 -0.3456 -2.20813 0
M  V30 20 C -4.51558 0.971756 -0.456377 0
M  V30 21 Cl -5.39937 2.37973 -0.99687 0
M  V30 22 C -3.53383 1.1099 0.501176 0
M  V30 23 H 6.14707 1.43893 -1.47456 0
M  V30 24 H 5.87268 -0.0867868 -2.34535 0
M  V30 25 H 1.7541 3.13325 0.139397 0
M  V30 26 H -0.396951 2.61651 1.31722 0
M  V30 27 H 0.480402 -1.54413 1.21893 0
M  V30 28 H 2.05214 -2.852 1.18009 0
M  V30 29 H 2.55328 -3.26502 -0.467349 0
M  V30 30 H -2.56973 -2.10473 0.738534 0
M  V30 31 H -4.34864 -2.33768 -0.99288 0
M  V30 32 H -3.30374 2.06815 0.919863 0
M  V30 END ATOM
M  V30 BEGIN BOND
M  V30 1 1 1 2
M  V30 2 2 2 3
M  V30 3 1 3 4
M  V30 4 2 4 5
M  V30 5 1 5 6
M  V30 6 2 6 7
M  V30 7 1 7 8
M  V30 8 2 8 9
M  V30 9 1 9 10
M  V30 10 1 10 11
M  V30 11 2 10 12
M  V30 12 1 7 13
M  V30 13 2 13 14
M  V30 14 1 13 15
M  V30 15 2 15 16
M  V30 16 1 16 17
M  V30 17 2 17 18
M  V30 18 1 18 19
M  V30 19 1 18 20
M  V30 20 1 20 21
M  V30 21 2 20 22
M  V30 22 1 12 2
M  V30 23 1 22 15
M  V30 24 1 9 4
M  V30 25 1 1 23
M  V30 26 1 1 24
M  V30 27 1 5 25
M  V30 28 1 6 26
M  V30 29 1 8 27
M  V30 30 1 11 28
M  V30 31 1 11 29
M  V30 32 1 16 30
M  V30 33 1 17 31
M  V30 34 1 22 32
M  V30 END BOND
M  V30 END CTAB
M  END
