
     RDKit          3D

  0  0  0  0  0  0  0  0  0  0999 V3000
M  V30 BEGIN CTAB
M  V30 COUNTS 36 37 0 0 0
M  V30 BEGIN ATOM
M  V30 1 N 6.01303 -0.0277398 -0.0375832 0
M  V30 2 C 4.60072 -0.105915 0.0307806 0
M  V30 3 C 3.77262 0.916656 -0.389602 0
M  V30 4 C 2.40706 0.82688 -0.317436 0
M  V30 5 C 1.86055 -0.333406 0.195997 0
M  V30 6 C 2.72883 -1.31448 0.597518 0
M  V30 7 N 4.056 -1.22672 0.527162 0
M  V30 8 C 0.369326 -0.484081 0.297371 0 CFG=1
M  V30 9 C -0.113962 0.555224 1.25289 0
M  V30 10 C -1.47827 0.254587 1.76398 0
M  V30 11 C -2.2767 -0.680485 0.917125 0
M  V30 12 N -2.57166 -0.237261 -0.387234 0
M  V30 13 C -1.51265 0.44147 -1.07702 0
M  V30 14 C -0.245389 -0.354497 -1.06787 0
M  V30 15 S -4.07495 0.567567 -0.544348 0
M  V30 16 O -4.2833 1.15516 -1.8886 0
M  V30 17 O -4.10492 1.6567 0.518626 0
M  V30 18 N -5.31125 -0.559446 -0.107526 0
M  V30 19 H 6.58173 0.0794874 0.809513 0
M  V30 20 H 6.48528 -0.0797043 -0.962487 0
M  V30 21 H 4.24009 1.80764 -0.785074 0
M  V30 22 H 1.7335 1.60736 -0.637269 0
M  V30 23 H 2.30991 -2.22411 0.999812 0
M  V30 24 H 0.189075 -1.48148 0.732366 0
M  V30 25 H -0.0614513 1.58085 0.832648 0
M  V30 26 H 0.599883 0.569619 2.12781 0
M  V30 27 H -1.40823 -0.216305 2.78847 0
M  V30 28 H -2.04725 1.18412 1.88794 0
M  V30 29 H -3.2562 -0.840279 1.45883 0
M  V30 30 H -1.83384 -1.70551 0.855419 0
M  V30 31 H -1.83089 0.525193 -2.14909 0
M  V30 32 H -1.35835 1.4876 -0.738852 0
M  V30 33 H -0.410573 -1.33337 -1.51552 0
M  V30 34 H 0.488635 0.185183 -1.71158 0
M  V30 35 H -5.22261 -0.720594 0.921384 0
M  V30 36 H -5.03379 -1.47592 -0.569952 0
M  V30 END ATOM
M  V30 BEGIN BOND
M  V30 1 1 1 2
M  V30 2 2 2 3
M  V30 3 1 3 4
M  V30 4 2 4 5
M  V30 5 1 5 6
M  V30 6 2 6 7
M  V30 7 1 5 8
M  V30 8 1 8 9
M  V30 9 1 9 10
M  V30 10 1 10 11
M  V30 11 1 11 12
M  V30 12 1 12 13
M  V30 13 1 13 14
M  V30 14 1 12 15
M  V30 15 2 15 16
M  V30 16 2 15 17
M  V30 17 1 15 18
M  V30 18 1 7 2
M  V30 19 1 14 8
M  V30 20 1 1 19
M  V30 21 1 1 20
M  V30 22 1 3 21
M  V30 23 1 4 22
M  V30 24 1 6 23
M  V30 25 1 8 24 CFG=1
M  V30 26 1 9 25
M  V30 27 1 9 26
M  V30 28 1 10 27
M  V30 29 1 10 28
M  V30 30 1 11 29
M  V30 31 1 11 30
M  V30 32 1 13 31
M  V30 33 1 13 32
M  V30 34 1 14 33
M  V30 35 1 14 34
M  V30 36 1 18 35
M  V30 37 1 18 36
M  V30 END BOND
M  V30 END CTAB
M  END
