
     RDKit          3D

  0  0  0  0  0  0  0  0  0  0999 V3000
M  V30 BEGIN CTAB
M  V30 COUNTS 21 21 0 0 0
M  V30 BEGIN ATOM
M  V30 1 N 2.07766 -1.0723 -0.919402 0
M  V30 2 C 1.78463 0.200902 -0.383056 0
M  V30 3 N 2.51444 0.723409 0.533767 0
M  V30 4 N 3.62522 0.0248162 1.0181 0
M  V30 5 N 0.666954 0.93256 -0.852899 0
M  V30 6 C -0.657825 0.535299 -0.499496 0
M  V30 7 C -0.879343 -0.569621 0.307263 0
M  V30 8 C -2.16717 -0.93737 0.637557 0
M  V30 9 F -2.33092 -2.03119 1.43338 0
M  V30 10 C -3.25879 -0.226661 0.181427 0
M  V30 11 C -3.04847 0.874368 -0.621961 0
M  V30 12 C -1.75709 1.23549 -0.947664 0
M  V30 13 F -1.59223 2.33789 -1.74975 0
M  V30 14 H 2.99966 -1.50385 -0.711827 0
M  V30 15 H 1.38059 -1.56615 -1.51116 0
M  V30 16 H 4.59706 0.414868 0.98219 0
M  V30 17 H 3.48861 -0.92805 1.43543 0
M  V30 18 H 0.779003 1.76675 -1.45913 0
M  V30 19 H -0.031136 -1.1335 0.670066 0
M  V30 20 H -4.28094 -0.524265 0.447696 0
M  V30 21 H -3.90992 1.4466 -0.990104 0
M  V30 END ATOM
M  V30 BEGIN BOND
M  V30 1 1 1 2
M  V30 2 2 2 3 CFG=2
M  V30 3 1 3 4
M  V30 4 1 2 5
M  V30 5 1 5 6
M  V30 6 2 6 7
M  V30 7 1 7 8
M  V30 8 1 8 9
M  V30 9 2 8 10
M  V30 10 1 10 11
M  V30 11 2 11 12
M  V30 12 1 12 13
M  V30 13 1 12 6
M  V30 14 1 1 14
M  V30 15 1 1 15
M  V30 16 1 4 16
M  V30 17 1 4 17
M  V30 18 1 5 18
M  V30 19 1 7 19
M  V30 20 1 10 20
M  V30 21 1 11 21
M  V30 END BOND
M  V30 END CTAB
M  END
