
     RDKit          3D

  0  0  0  0  0  0  0  0  0  0999 V3000
M  V30 BEGIN CTAB
M  V30 COUNTS 36 38 0 0 0
M  V30 BEGIN ATOM
M  V30 1 Cl 5.55702 2.86201 1.71559 0
M  V30 2 C 4.74613 1.80746 0.570333 0
M  V30 3 C 5.17616 1.70639 -0.733792 0
M  V30 4 C 4.54391 0.878889 -1.64197 0
M  V30 5 Cl 5.09013 0.746321 -3.31054 0
M  V30 6 C 3.44955 0.116577 -1.27444 0
M  V30 7 C 3.02443 0.221622 0.0296564 0
M  V30 8 C 3.64908 1.04199 0.935075 0
M  V30 9 C 1.8648 -0.571313 0.462211 0
M  V30 10 O 1.27987 -1.33152 -0.362441 0
M  V30 11 O 1.3752 -0.528668 1.73737 0
M  V30 12 C 0.284891 -1.26351 2.16305 0
M  V30 13 C -0.990168 -1.00051 1.48324 0
M  V30 14 N -2.04565 -1.81581 1.61352 0
M  V30 15 C -3.22701 -1.58906 1.00461 0
M  V30 16 N -4.34895 -2.43434 1.12895 0
M  V30 17 C -3.34213 -0.463703 0.214438 0
M  V30 18 C -2.2637 0.38412 0.0715307 0
M  V30 19 N -1.11476 0.0918044 0.711274 0
M  V30 20 C -2.37478 1.50406 -0.713502 0
M  V30 21 C -3.55399 1.81789 -1.37926 0
M  V30 22 C -4.63767 0.97323 -1.24048 0
M  V30 23 C -4.5224 -0.15504 -0.448304 0
M  V30 24 N 2.79177 -0.739453 -2.20512 0
M  V30 25 H 6.02569 2.27528 -1.08535 0
M  V30 26 H 3.33311 1.14245 1.96912 0
M  V30 27 H 0.167479 -1.08918 3.274 0
M  V30 28 H 0.559857 -2.35984 2.11864 0
M  V30 29 H -4.24133 -3.44924 0.98974 0
M  V30 30 H -5.27005 -2.0345 1.35805 0
M  V30 31 H -1.54698 2.18196 -0.841161 0
M  V30 32 H -3.5905 2.71057 -1.98479 0
M  V30 33 H -5.54111 1.23196 -1.76266 0
M  V30 34 H -5.38502 -0.808543 -0.350334 0
M  V30 35 H 2.9879 -1.75801 -2.27254 0
M  V30 36 H 2.08921 -0.302366 -2.83324 0
M  V30 END ATOM
M  V30 BEGIN BOND
M  V30 1 1 1 2
M  V30 2 2 2 3
M  V30 3 1 3 4
M  V30 4 1 4 5
M  V30 5 2 4 6
M  V30 6 1 6 7
M  V30 7 2 7 8
M  V30 8 1 7 9
M  V30 9 2 9 10
M  V30 10 1 9 11
M  V30 11 1 11 12
M  V30 12 1 12 13
M  V30 13 2 13 14
M  V30 14 1 14 15
M  V30 15 1 15 16
M  V30 16 2 15 17
M  V30 17 1 17 18
M  V30 18 2 18 19
M  V30 19 1 18 20
M  V30 20 2 20 21
M  V30 21 1 21 22
M  V30 22 2 22 23
M  V30 23 1 6 24
M  V30 24 1 8 2
M  V30 25 1 19 13
M  V30 26 1 23 17
M  V30 27 1 3 25
M  V30 28 1 8 26
M  V30 29 1 12 27
M  V30 30 1 12 28
M  V30 31 1 16 29
M  V30 32 1 16 30
M  V30 33 1 20 31
M  V30 34 1 21 32
M  V30 35 1 22 33
M  V30 36 1 23 34
M  V30 37 1 24 35
M  V30 38 1 24 36
M  V30 END BOND
M  V30 END CTAB
M  END
