
     RDKit          3D

  0  0  0  0  0  0  0  0  0  0999 V3000
M  V30 BEGIN CTAB
M  V30 COUNTS 26 27 0 0 0
M  V30 BEGIN ATOM
M  V30 1 C -2.19846 -1.82437 0.655078 0
M  V30 2 O -1.273 -1.63664 -0.33837 0
M  V30 3 C -0.617313 -0.414058 -0.315045 0
M  V30 4 C 0.834042 -0.593088 -0.126756 0
M  V30 5 N 1.6173 -1.47335 -0.748645 0
M  V30 6 N 2.86776 -1.35238 -0.332327 0
M  V30 7 C 2.88112 -0.361951 0.585353 0
M  V30 8 N 1.60805 0.103635 0.70506 0
M  V30 9 N 1.28584 1.14034 1.58367 0
M  V30 10 N 4.03274 0.0983442 1.29088 0
M  V30 11 C -0.955356 0.334034 -1.57001 0
M  V30 12 C -2.4336 0.623284 -1.75462 0
M  V30 13 C -1.4343 1.72546 -1.57969 0
M  V30 14 H -3.02837 -1.13156 0.705289 0
M  V30 15 H -1.70318 -1.8278 1.6702 0
M  V30 16 H -2.56025 -2.88994 0.551393 0
M  V30 17 H -1.06304 0.173374 0.542962 0
M  V30 18 H 0.754744 0.956777 2.45199 0
M  V30 19 H 1.60851 2.10762 1.31834 0
M  V30 20 H 4.57498 0.949923 0.966853 0
M  V30 21 H 4.38081 -0.380906 2.14333 0
M  V30 22 H -0.433132 -0.00753821 -2.50511 0
M  V30 23 H -2.87056 0.467279 -2.76295 0
M  V30 24 H -3.15482 0.536789 -0.949167 0
M  V30 25 H -1.25047 2.33538 -2.48481 0
M  V30 26 H -1.47006 2.34134 -0.656111 0
M  V30 END ATOM
M  V30 BEGIN BOND
M  V30 1 1 1 2
M  V30 2 1 2 3
M  V30 3 1 3 4
M  V30 4 2 4 5
M  V30 5 1 5 6
M  V30 6 2 6 7
M  V30 7 1 7 8
M  V30 8 1 8 9
M  V30 9 1 7 10
M  V30 10 1 3 11
M  V30 11 1 11 12
M  V30 12 1 12 13
M  V30 13 1 8 4
M  V30 14 1 13 11
M  V30 15 1 1 14
M  V30 16 1 1 15
M  V30 17 1 1 16
M  V30 18 1 3 17
M  V30 19 1 9 18
M  V30 20 1 9 19
M  V30 21 1 10 20
M  V30 22 1 10 21
M  V30 23 1 11 22
M  V30 24 1 12 23
M  V30 25 1 12 24
M  V30 26 1 13 25
M  V30 27 1 13 26
M  V30 END BOND
M  V30 END CTAB
M  END
