
     RDKit          3D

  0  0  0  0  0  0  0  0  0  0999 V3000
M  V30 BEGIN CTAB
M  V30 COUNTS 26 26 0 0 0
M  V30 BEGIN ATOM
M  V30 1 C -3.53545 1.81141 -1.00753 0
M  V30 2 N -2.67649 0.746891 -0.508929 0
M  V30 3 C -3.1456 -0.397593 0.0276645 0
M  V30 4 C -2.09207 -1.20716 0.406676 0
M  V30 5 C -0.953638 -0.478716 0.0648063 0
M  V30 6 N -1.36528 0.6846 -0.48026 0
M  V30 7 C 0.403158 -0.945927 0.283249 0
M  V30 8 O 0.635896 -2.06262 0.806567 0
M  V30 9 N 1.51317 -0.146547 -0.0918863 0
M  V30 10 C 2.86789 -0.58303 0.112142 0
M  V30 11 C 3.87061 0.456031 -0.375322 0
M  V30 12 N 3.66272 1.67419 0.35307 0
M  V30 13 N -2.14076 -2.49163 1.00869 0
M  V30 14 H -2.99036 2.75398 -1.07247 0
M  V30 15 H -4.3985 1.87364 -0.311466 0
M  V30 16 H -3.91124 1.52872 -2.02322 0
M  V30 17 H -4.18428 -0.656789 0.149562 0
M  V30 18 H 1.35509 0.79642 -0.533808 0
M  V30 19 H 3.02108 -1.55674 -0.412536 0
M  V30 20 H 3.00822 -0.798153 1.19054 0
M  V30 21 H 3.75891 0.658583 -1.44403 0
M  V30 22 H 4.88121 0.0129211 -0.199727 0
M  V30 23 H 2.77099 1.7374 0.858763 0
M  V30 24 H 3.96807 2.53079 -0.133939 0
M  V30 25 H -1.51942 -3.25533 0.687068 0
M  V30 26 H -2.80393 -2.68535 1.78483 0
M  V30 END ATOM
M  V30 BEGIN BOND
M  V30 1 1 1 2
M  V30 2 1 2 3
M  V30 3 2 3 4
M  V30 4 1 4 5
M  V30 5 2 5 6
M  V30 6 1 5 7
M  V30 7 2 7 8
M  V30 8 1 7 9
M  V30 9 1 9 10
M  V30 10 1 10 11
M  V30 11 1 11 12
M  V30 12 1 4 13
M  V30 13 1 6 2
M  V30 14 1 1 14
M  V30 15 1 1 15
M  V30 16 1 1 16
M  V30 17 1 3 17
M  V30 18 1 9 18
M  V30 19 1 10 19
M  V30 20 1 10 20
M  V30 21 1 11 21
M  V30 22 1 11 22
M  V30 23 1 12 23
M  V30 24 1 12 24
M  V30 25 1 13 25
M  V30 26 1 13 26
M  V30 END BOND
M  V30 END CTAB
M  END
