
     RDKit          3D

  0  0  0  0  0  0  0  0  0  0999 V3000
M  V30 BEGIN CTAB
M  V30 COUNTS 24 23 0 0 0
M  V30 BEGIN ATOM
M  V30 1 N 0.379358 -1.7722 0.994047 0
M  V30 2 C 0.0157356 -0.358732 0.70867 0
M  V30 3 C -1.23893 -0.35163 -0.121587 0
M  V30 4 N -2.24385 -1.05588 0.691636 0
M  V30 5 C -1.85119 1.0244 -0.288306 0
M  V30 6 C 1.20176 0.320145 0.11553 0
M  V30 7 C 1.0836 1.74884 -0.241171 0
M  V30 8 C 1.77399 -0.438181 -1.06587 0
M  V30 9 H 0.495148 -2.31102 0.131898 0
M  V30 10 H 1.31683 -1.71303 1.46061 0
M  V30 11 H -0.207789 0.0771917 1.69146 0
M  V30 12 H -1.15408 -0.881447 -1.07388 0
M  V30 13 H -2.52073 -1.94688 0.276321 0
M  V30 14 H -2.01616 -1.05589 1.68796 0
M  V30 15 H -1.43556 1.61536 -1.10504 0
M  V30 16 H -2.94802 0.875596 -0.493517 0
M  V30 17 H -1.84601 1.5309 0.710024 0
M  V30 18 H 2.00962 0.23513 0.911181 0
M  V30 19 H 0.382655 2.26 0.441319 0
M  V30 20 H 0.871844 1.9406 -1.31273 0
M  V30 21 H 2.11289 2.2108 -0.0897351 0
M  V30 22 H 1.03904 -0.634155 -1.84892 0
M  V30 23 H 2.64536 0.0998221 -1.4848 0
M  V30 24 H 2.13448 -1.41974 -0.695105 0
M  V30 END ATOM
M  V30 BEGIN BOND
M  V30 1 1 1 2
M  V30 2 1 2 3
M  V30 3 1 3 4
M  V30 4 1 3 5
M  V30 5 1 2 6
M  V30 6 1 6 7
M  V30 7 1 6 8
M  V30 8 1 1 9
M  V30 9 1 1 10
M  V30 10 1 2 11
M  V30 11 1 3 12
M  V30 12 1 4 13
M  V30 13 1 4 14
M  V30 14 1 5 15
M  V30 15 1 5 16
M  V30 16 1 5 17
M  V30 17 1 6 18
M  V30 18 1 7 19
M  V30 19 1 7 20
M  V30 20 1 7 21
M  V30 21 1 8 22
M  V30 22 1 8 23
M  V30 23 1 8 24
M  V30 END BOND
M  V30 END CTAB
M  END
