
     RDKit          3D

  0  0  0  0  0  0  0  0  0  0999 V3000
M  V30 BEGIN CTAB
M  V30 COUNTS 25 26 0 0 0
M  V30 BEGIN ATOM
M  V30 1 N 3.53808 -0.133466 -0.434397 0
M  V30 2 C 2.14966 -0.475884 -0.594247 0
M  V30 3 C 1.46424 -1.02434 0.63715 0
M  V30 4 C 0.502712 0.0892214 0.66648 0
M  V30 5 C 1.28961 0.773755 -0.448198 0
M  V30 6 F 0.478222 0.835239 1.84873 0
M  V30 7 C -0.876362 -0.143138 0.209257 0
M  V30 8 C -1.36992 -1.31785 -0.252228 0
M  V30 9 C -2.68841 -1.3813 -0.646002 0
M  V30 10 C -3.50345 -0.272372 -0.576109 0
M  V30 11 N -3.00588 0.885897 -0.117976 0
M  V30 12 C -1.73655 0.939937 0.2592 0
M  V30 13 N -1.27189 2.21733 0.740462 0
M  V30 14 H 4.0675 -0.807847 0.158241 0
M  V30 15 H 3.684 0.866694 -0.136303 0
M  V30 16 H 1.93993 -1.09065 -1.47646 0
M  V30 17 H 2.18937 -0.94323 1.50041 0
M  V30 18 H 1.11042 -2.05191 0.58255 0
M  V30 19 H 0.738197 0.944853 -1.37576 0
M  V30 20 H 1.84048 1.6671 -0.117631 0
M  V30 21 H -0.723873 -2.17023 -0.300402 0
M  V30 22 H -3.06459 -2.34527 -1.01649 0
M  V30 23 H -4.52835 -0.35991 -0.892605 0
M  V30 24 H -1.44218 2.45809 1.72743 0
M  V30 25 H -0.780964 2.8393 0.054891 0
M  V30 END ATOM
M  V30 BEGIN BOND
M  V30 1 1 1 2
M  V30 2 1 2 3
M  V30 3 1 3 4
M  V30 4 1 4 5
M  V30 5 1 4 6
M  V30 6 1 4 7
M  V30 7 2 7 8
M  V30 8 1 8 9
M  V30 9 2 9 10
M  V30 10 1 10 11
M  V30 11 2 11 12
M  V30 12 1 12 13
M  V30 13 1 5 2
M  V30 14 1 12 7
M  V30 15 1 1 14
M  V30 16 1 1 15
M  V30 17 1 2 16
M  V30 18 1 3 17
M  V30 19 1 3 18
M  V30 20 1 5 19
M  V30 21 1 5 20
M  V30 22 1 8 21
M  V30 23 1 9 22
M  V30 24 1 10 23
M  V30 25 1 13 24
M  V30 26 1 13 25
M  V30 END BOND
M  V30 END CTAB
M  END
