
     RDKit          3D

  0  0  0  0  0  0  0  0  0  0999 V3000
M  V30 BEGIN CTAB
M  V30 COUNTS 52 54 0 0 0
M  V30 BEGIN ATOM
M  V30 1 N 4.80621 -0.845494 -2.30166 0
M  V30 2 C 4.29364 -1.39317 -1.09839 0
M  V30 3 C 4.1641 -0.2893 -0.0576655 0
M  V30 4 C 3.62677 -0.811347 1.23078 0
M  V30 5 C 3.4878 0.228492 2.26295 0
M  V30 6 C 2.49195 1.34771 1.95476 0 CFG=1
M  V30 7 C 1.15197 0.736198 1.80418 0
M  V30 8 O 0.710737 0.093775 2.83746 0
M  V30 9 N 0.379558 0.827578 0.638979 0
M  V30 10 C -0.933243 0.188607 0.459427 0
M  V30 11 C -1.32147 0.4179 -0.974802 0 CFG=1
M  V30 12 C 0.0680404 0.582389 -1.60886 0 CFG=1
M  V30 13 C 0.646321 1.55591 -0.564942 0
M  V30 14 O 0.772485 -0.590126 -1.50361 0
M  V30 15 C -2.09938 -0.689077 -1.58857 0
M  V30 16 C -3.35623 -0.836044 -0.77144 0
M  V30 17 C -3.49506 -1.87307 0.123156 0
M  V30 18 C -4.65669 -1.99619 0.868069 0
M  V30 19 C -5.66289 -1.06741 0.69741 0
M  V30 20 N -5.53603 -0.0562276 -0.170202 0
M  V30 21 C -4.39502 0.0569626 -0.895817 0
M  V30 22 C -4.52884 1.18249 -1.70791 0
M  V30 23 C -5.78887 1.69844 -1.41156 0
M  V30 24 N -6.37056 0.926826 -0.479182 0
M  V30 25 N 2.48845 2.2505 3.12678 0
M  V30 26 H 4.27038 -0.063664 -2.61619 0
M  V30 27 H 5.79519 -0.652073 -2.22165 0
M  V30 28 H 3.34658 -1.9374 -1.23362 0
M  V30 29 H 5.04555 -2.13531 -0.737835 0
M  V30 30 H 5.2015 0.0853335 0.155442 0
M  V30 31 H 3.57723 0.531693 -0.481999 0
M  V30 32 H 2.62165 -1.30009 1.04525 0
M  V30 33 H 4.27551 -1.64663 1.62622 0
M  V30 34 H 3.20884 -0.219373 3.26235 0
M  V30 35 H 4.46788 0.72986 2.45397 0
M  V30 36 H 2.85523 1.90556 1.10657 0
M  V30 37 H -0.895722 -0.886853 0.72992 0
M  V30 38 H -1.6877 0.684639 1.13338 0
M  V30 39 H -1.81657 1.3924 -1.08275 0
M  V30 40 H 0.0235888 1.02426 -2.60146 0
M  V30 41 H 1.67044 1.84028 -0.758249 0
M  V30 42 H -0.0480508 2.45059 -0.550618 0
M  V30 43 H 0.363164 -1.25008 -0.88 0
M  V30 44 H -2.39002 -0.383411 -2.60897 0
M  V30 45 H -1.52536 -1.62602 -1.58151 0
M  V30 46 H -2.69018 -2.59829 0.245827 0
M  V30 47 H -4.78835 -2.79705 1.57245 0
M  V30 48 H -6.58016 -1.13866 1.26517 0
M  V30 49 H -3.80769 1.56354 -2.41046 0
M  V30 50 H -6.25255 2.58223 -1.84908 0
M  V30 51 H 1.56417 2.74343 3.09318 0
M  V30 52 H 3.2517 2.94683 3.05536 0
M  V30 END ATOM
M  V30 BEGIN BOND
M  V30 1 1 1 2
M  V30 2 1 2 3
M  V30 3 1 3 4
M  V30 4 1 4 5
M  V30 5 1 5 6
M  V30 6 1 6 7
M  V30 7 2 7 8
M  V30 8 1 7 9
M  V30 9 1 9 10
M  V30 10 1 10 11
M  V30 11 1 11 12
M  V30 12 1 12 13
M  V30 13 1 12 14
M  V30 14 1 11 15
M  V30 15 1 15 16
M  V30 16 2 16 17
M  V30 17 1 17 18
M  V30 18 2 18 19
M  V30 19 1 19 20
M  V30 20 1 20 21
M  V30 21 2 21 22
M  V30 22 1 22 23
M  V30 23 2 23 24
M  V30 24 1 6 25
M  V30 25 1 13 9
M  V30 26 1 21 16
M  V30 27 1 24 20
M  V30 28 1 1 26
M  V30 29 1 1 27
M  V30 30 1 2 28
M  V30 31 1 2 29
M  V30 32 1 3 30
M  V30 33 1 3 31
M  V30 34 1 4 32
M  V30 35 1 4 33
M  V30 36 1 5 34
M  V30 37 1 5 35
M  V30 38 1 6 36 CFG=3
M  V30 39 1 10 37
M  V30 40 1 10 38
M  V30 41 1 11 39 CFG=1
M  V30 42 1 12 40 CFG=3
M  V30 43 1 13 41
M  V30 44 1 13 42
M  V30 45 1 14 43
M  V30 46 1 15 44
M  V30 47 1 15 45
M  V30 48 1 17 46
M  V30 49 1 18 47
M  V30 50 1 19 48
M  V30 51 1 22 49
M  V30 52 1 23 50
M  V30 53 1 25 51
M  V30 54 1 25 52
M  V30 END BOND
M  V30 END CTAB
M  END
