
     RDKit          3D

  0  0  0  0  0  0  0  0  0  0999 V3000
M  V30 BEGIN CTAB
M  V30 COUNTS 39 41 0 0 0
M  V30 BEGIN ATOM
M  V30 1 C -4.32795 2.40462 -0.679043 0
M  V30 2 C -3.49203 1.25031 -0.268627 0
M  V30 3 C -4.08658 0.0307371 -0.00427629 0
M  V30 4 C -3.29442 -1.02076 0.373098 0
M  V30 5 C -3.91898 -2.33679 0.660277 0
M  V30 6 C -1.92568 -0.866168 0.487742 0
M  V30 7 C -1.3149 0.339152 0.229136 0
M  V30 8 C -2.1118 1.39813 -0.150826 0
M  V30 9 C 0.144896 0.488047 0.355753 0
M  V30 10 C 0.588533 1.39025 1.33423 0
M  V30 11 C 1.90699 1.53107 1.55325 0
M  V30 12 C 2.82385 0.79334 0.822518 0
M  V30 13 C 2.36917 -0.0955942 -0.143445 0
M  V30 14 C 1.00559 -0.274596 -0.409683 0
M  V30 15 C 0.536835 -1.16863 -1.48457 0
M  V30 16 C 3.32563 -0.79477 -0.809694 0
M  V30 17 N 2.97535 -1.74322 -1.7861 0
M  V30 18 N 4.64155 -0.597204 -0.512961 0
M  V30 19 C 5.06465 0.260944 0.4155 0
M  V30 20 N 4.13217 0.956084 1.08192 0
M  V30 21 N 6.45782 0.440652 0.697599 0
M  V30 22 H -4.71831 2.96934 0.189685 0
M  V30 23 H -3.77957 3.12724 -1.31392 0
M  V30 24 H -5.21642 1.98487 -1.21682 0
M  V30 25 H -5.14915 -0.0286706 -0.109796 0
M  V30 26 H -4.94843 -2.39241 0.299302 0
M  V30 27 H -3.82854 -2.60312 1.7489 0
M  V30 28 H -3.3312 -3.08983 0.0771459 0
M  V30 29 H -1.34362 -1.71918 0.786955 0
M  V30 30 H -1.64616 2.35155 -0.357393 0
M  V30 31 H -0.147771 1.95375 1.8915 0
M  V30 32 H 2.29842 2.22857 2.31111 0
M  V30 33 H -0.578635 -0.907025 -1.58622 0
M  V30 34 H 0.822117 -0.857109 -2.51793 0
M  V30 35 H 0.465458 -2.22081 -1.27044 0
M  V30 36 H 2.70735 -2.7017 -1.51425 0
M  V30 37 H 3.00347 -1.49106 -2.7891 0
M  V30 38 H 6.73962 0.667996 1.65769 0
M  V30 39 H 7.1507 0.341995 -0.0511347 0
M  V30 END ATOM
M  V30 BEGIN BOND
M  V30 1 1 1 2
M  V30 2 2 2 3
M  V30 3 1 3 4
M  V30 4 1 4 5
M  V30 5 2 4 6
M  V30 6 1 6 7
M  V30 7 2 7 8
M  V30 8 1 7 9
M  V30 9 2 9 10
M  V30 10 1 10 11
M  V30 11 2 11 12
M  V30 12 1 12 13
M  V30 13 2 13 14
M  V30 14 1 14 15
M  V30 15 1 13 16
M  V30 16 1 16 17
M  V30 17 2 16 18
M  V30 18 1 18 19
M  V30 19 2 19 20
M  V30 20 1 19 21
M  V30 21 1 8 2
M  V30 22 1 14 9
M  V30 23 1 20 12
M  V30 24 1 1 22
M  V30 25 1 1 23
M  V30 26 1 1 24
M  V30 27 1 3 25
M  V30 28 1 5 26
M  V30 29 1 5 27
M  V30 30 1 5 28
M  V30 31 1 6 29
M  V30 32 1 8 30
M  V30 33 1 10 31
M  V30 34 1 11 32
M  V30 35 1 15 33
M  V30 36 1 15 34
M  V30 37 1 15 35
M  V30 38 1 17 36
M  V30 39 1 17 37
M  V30 40 1 21 38
M  V30 41 1 21 39
M  V30 END BOND
M  V30 END CTAB
M  END
