
     RDKit          3D

  0  0  0  0  0  0  0  0  0  0999 V3000
M  V30 BEGIN CTAB
M  V30 COUNTS 26 28 0 0 0
M  V30 BEGIN ATOM
M  V30 1 N -4.28311 -0.0370741 -1.30664 0
M  V30 2 C -3.06314 -0.0519483 -0.574878 0
M  V30 3 C -2.23155 1.0475 -0.616762 0
M  V30 4 C -1.04048 1.07299 0.078144 0
M  V30 5 C -0.635055 0.00755926 0.837295 0
M  V30 6 C -1.47357 -1.09431 0.876655 0
M  V30 7 C -2.6678 -1.12881 0.184639 0
M  V30 8 C 0.645441 -0.0326318 1.59395 0
M  V30 9 N 0.53513 -0.14338 2.95232 0
M  V30 10 S 2.09216 -0.173813 3.50044 0
M  V30 11 C 2.91559 -0.0477346 2.00283 0
M  V30 12 C 1.88525 0.015867 1.08781 0
M  V30 13 C 2.33794 0.0985418 -0.247856 0
M  V30 14 N 1.44444 0.117509 -1.35162 0
M  V30 15 N 3.66418 0.113979 -0.511232 0
M  V30 16 C 4.63941 0.0555209 0.38918 0
M  V30 17 N 4.24309 -0.027158 1.66582 0
M  V30 18 H -4.91768 0.805374 -1.27361 0
M  V30 19 H -4.57493 -0.841444 -1.88207 0
M  V30 20 H -2.54283 1.90039 -1.21721 0
M  V30 21 H -0.43801 1.97233 0.0153556 0
M  V30 22 H -1.15927 -1.93923 1.47504 0
M  V30 23 H -3.30218 -2.00341 0.234384 0
M  V30 24 H 1.34391 0.967223 -1.93042 0
M  V30 25 H 0.891205 -0.724629 -1.58586 0
M  V30 26 H 5.69185 0.0707968 0.151737 0
M  V30 END ATOM
M  V30 BEGIN BOND
M  V30 1 1 1 2
M  V30 2 2 2 3
M  V30 3 1 3 4
M  V30 4 2 4 5
M  V30 5 1 5 6
M  V30 6 2 6 7
M  V30 7 1 5 8
M  V30 8 2 8 9
M  V30 9 1 9 10
M  V30 10 1 10 11
M  V30 11 2 11 12
M  V30 12 1 12 13
M  V30 13 1 13 14
M  V30 14 2 13 15
M  V30 15 1 15 16
M  V30 16 2 16 17
M  V30 17 1 7 2
M  V30 18 1 12 8
M  V30 19 1 17 11
M  V30 20 1 1 18
M  V30 21 1 1 19
M  V30 22 1 3 20
M  V30 23 1 4 21
M  V30 24 1 6 22
M  V30 25 1 7 23
M  V30 26 1 14 24
M  V30 27 1 14 25
M  V30 28 1 16 26
M  V30 END BOND
M  V30 END CTAB
M  END
