
     RDKit          3D

  0  0  0  0  0  0  0  0  0  0999 V3000
M  V30 BEGIN CTAB
M  V30 COUNTS 29 29 0 0 0
M  V30 BEGIN ATOM
M  V30 1 N -3.09938 -1.18859 -1.29457 0
M  V30 2 C -1.97981 -0.976552 -0.396998 0
M  V30 3 C -1.67922 0.483934 -0.230555 0
M  V30 4 N -0.574768 0.72928 0.652753 0
M  V30 5 C 0.75926 0.324118 0.379312 0
M  V30 6 C 1.7694 0.593787 1.3101 0
M  V30 7 C 3.07705 0.223564 1.0761 0
M  V30 8 C 3.4415 -0.427197 -0.0845003 0
M  V30 9 C 2.41934 -0.680486 -0.98718 0
M  V30 10 N 1.15251 -0.307735 -0.732308 0
M  V30 11 C 4.83569 -0.840719 -0.371595 0
M  V30 12 C -2.88867 1.28307 0.201597 0
M  V30 13 N -3.94493 1.18058 -0.768041 0
M  V30 14 H -2.87604 -1.84542 -2.07238 0
M  V30 15 H -3.9733 -1.43938 -0.794152 0
M  V30 16 H -1.08576 -1.50986 -0.755514 0
M  V30 17 H -2.26927 -1.4623 0.565333 0
M  V30 18 H -1.37282 0.882426 -1.24489 0
M  V30 19 H -0.78729 1.24581 1.56129 0
M  V30 20 H 1.48693 1.10476 2.22279 0
M  V30 21 H 3.86976 0.431691 1.79956 0
M  V30 22 H 2.68055 -1.19282 -1.91084 0
M  V30 23 H 5.42382 -1.00635 0.551705 0
M  V30 24 H 5.38521 -0.0759399 -0.962692 0
M  V30 25 H 4.84143 -1.79343 -0.950375 0
M  V30 26 H -3.21187 1.05806 1.21695 0
M  V30 27 H -2.55518 2.35801 0.208225 0
M  V30 28 H -4.85347 0.885184 -0.370499 0
M  V30 29 H -3.99068 1.9625 -1.43051 0
M  V30 END ATOM
M  V30 BEGIN BOND
M  V30 1 1 1 2
M  V30 2 1 2 3
M  V30 3 1 3 4
M  V30 4 1 4 5
M  V30 5 2 5 6
M  V30 6 1 6 7
M  V30 7 2 7 8
M  V30 8 1 8 9
M  V30 9 2 9 10
M  V30 10 1 8 11
M  V30 11 1 3 12
M  V30 12 1 12 13
M  V30 13 1 10 5
M  V30 14 1 1 14
M  V30 15 1 1 15
M  V30 16 1 2 16
M  V30 17 1 2 17
M  V30 18 1 3 18
M  V30 19 1 4 19
M  V30 20 1 6 20
M  V30 21 1 7 21
M  V30 22 1 9 22
M  V30 23 1 11 23
M  V30 24 1 11 24
M  V30 25 1 11 25
M  V30 26 1 12 26
M  V30 27 1 12 27
M  V30 28 1 13 28
M  V30 29 1 13 29
M  V30 END BOND
M  V30 END CTAB
M  END
