
     RDKit          3D

  0  0  0  0  0  0  0  0  0  0999 V3000
M  V30 BEGIN CTAB
M  V30 COUNTS 19 20 0 0 0
M  V30 BEGIN ATOM
M  V30 1 N 1.82604 -2.75567 -0.203176 0
M  V30 2 C 1.45952 -1.40034 -0.0530842 0
M  V30 3 N 2.34083 -0.404496 0.107428 0
M  V30 4 C 1.89745 0.859563 0.242973 0
M  V30 5 N 2.87978 1.87256 0.409996 0
M  V30 6 N 0.56487 1.15467 0.22096 0
M  V30 7 C -0.303112 0.167759 0.062128 0
M  V30 8 N 0.152964 -1.09226 -0.0723702 0
M  V30 9 N -1.72194 0.341804 0.021522 0
M  V30 10 C -2.46053 0.493951 -1.09583 0
M  V30 11 N -3.77139 0.633376 -0.753069 0
M  V30 12 C -3.83451 0.565793 0.586528 0
M  V30 13 N -2.57629 0.389073 1.02139 0
M  V30 14 H 2.16886 -3.27464 0.623093 0
M  V30 15 H 1.76079 -3.24049 -1.11397 0
M  V30 16 H 2.7733 2.78421 -0.0843449 0
M  V30 17 H 3.73289 1.74906 1.0228 0
M  V30 18 H -2.13835 0.51185 -2.10873 0
M  V30 19 H -4.75119 0.644234 1.16575 0
M  V30 END ATOM
M  V30 BEGIN BOND
M  V30 1 1 1 2
M  V30 2 2 2 3
M  V30 3 1 3 4
M  V30 4 1 4 5
M  V30 5 2 4 6
M  V30 6 1 6 7
M  V30 7 2 7 8
M  V30 8 1 7 9
M  V30 9 1 9 10
M  V30 10 2 10 11
M  V30 11 1 11 12
M  V30 12 2 12 13
M  V30 13 1 8 2
M  V30 14 1 13 9
M  V30 15 1 1 14
M  V30 16 1 1 15
M  V30 17 1 5 16
M  V30 18 1 5 17
M  V30 19 1 10 18
M  V30 20 1 12 19
M  V30 END BOND
M  V30 END CTAB
M  END
