
     RDKit          3D

  0  0  0  0  0  0  0  0  0  0999 V3000
M  V30 BEGIN CTAB
M  V30 COUNTS 37 38 0 0 0
M  V30 BEGIN ATOM
M  V30 1 C 4.89133 -1.47223 -0.1086 0
M  V30 2 C 4.44099 -0.0318143 -0.10796 0
M  V30 3 C 2.96345 0.092833 -0.0830474 0
M  V30 4 C 2.19126 0.150653 -1.22525 0
M  V30 5 C 0.815612 0.266953 -1.15804 0
M  V30 6 C 0.151762 0.330491 0.0464561 0
M  V30 7 C 0.92111 0.272905 1.18707 0
M  V30 8 C 2.29595 0.156687 1.12256 0
M  V30 9 N -1.29009 0.452492 0.100375 0
M  V30 10 C -1.87504 1.74869 0.119287 0
M  V30 11 N -1.02032 2.9065 0.0851184 0
M  V30 12 N -3.14381 1.93878 0.165948 0
M  V30 13 C -4.03261 0.808294 0.201398 0
M  V30 14 N -5.42494 1.0628 0.252448 0
M  V30 15 N -3.51828 -0.35202 0.184906 0
M  V30 16 C -2.14128 -0.692483 0.134659 0
M  V30 17 C -1.69662 -1.52943 1.32284 0
M  V30 18 C -1.88834 -1.45311 -1.16911 0
M  V30 19 H 4.27149 -2.09088 -0.768415 0
M  V30 20 H 4.82911 -1.83454 0.953952 0
M  V30 21 H 5.97212 -1.48394 -0.359141 0
M  V30 22 H 4.92476 0.456585 0.758682 0
M  V30 23 H 4.87253 0.474195 -1.01392 0
M  V30 24 H 2.71182 0.100793 -2.17669 0
M  V30 25 H 0.214915 0.311787 -2.06849 0
M  V30 26 H 0.423072 0.321046 2.14954 0
M  V30 27 H 2.90443 0.111159 2.02953 0
M  V30 28 H -0.882709 3.38074 -0.835139 0
M  V30 29 H -0.545406 3.28318 0.913591 0
M  V30 30 H -5.88079 1.22459 1.15959 0
M  V30 31 H -5.96119 1.08179 -0.624647 0
M  V30 32 H -2.54122 -2.24314 1.52049 0
M  V30 33 H -0.765501 -2.07563 1.12435 0
M  V30 34 H -1.65444 -0.877038 2.21986 0
M  V30 35 H -0.8742 -1.87105 -1.21478 0
M  V30 36 H -2.67581 -2.23118 -1.27933 0
M  V30 37 H -1.98311 -0.695439 -1.97725 0
M  V30 END ATOM
M  V30 BEGIN BOND
M  V30 1 1 1 2
M  V30 2 1 2 3
M  V30 3 2 3 4
M  V30 4 1 4 5
M  V30 5 2 5 6
M  V30 6 1 6 7
M  V30 7 2 7 8
M  V30 8 1 6 9
M  V30 9 1 9 10
M  V30 10 1 10 11
M  V30 11 2 10 12
M  V30 12 1 12 13
M  V30 13 1 13 14
M  V30 14 2 13 15
M  V30 15 1 15 16
M  V30 16 1 16 17
M  V30 17 1 16 18
M  V30 18 1 8 3
M  V30 19 1 16 9
M  V30 20 1 1 19
M  V30 21 1 1 20
M  V30 22 1 1 21
M  V30 23 1 2 22
M  V30 24 1 2 23
M  V30 25 1 4 24
M  V30 26 1 5 25
M  V30 27 1 7 26
M  V30 28 1 8 27
M  V30 29 1 11 28
M  V30 30 1 11 29
M  V30 31 1 14 30
M  V30 32 1 14 31
M  V30 33 1 17 32
M  V30 34 1 17 33
M  V30 35 1 17 34
M  V30 36 1 18 35
M  V30 37 1 18 36
M  V30 38 1 18 37
M  V30 END BOND
M  V30 END CTAB
M  END
