
     RDKit          3D

  0  0  0  0  0  0  0  0  0  0999 V3000
M  V30 BEGIN CTAB
M  V30 COUNTS 64 64 0 0 0
M  V30 BEGIN ATOM
M  V30 1 N 4.83133 2.64736 0.852629 0
M  V30 2 C 5.85638 1.77856 0.401144 0
M  V30 3 C 5.49884 1.07876 -0.892097 0
M  V30 4 C 4.26532 0.240124 -0.768216 0
M  V30 5 C 4.36556 -0.830573 0.243245 0
M  V30 6 C 3.10436 -1.70536 0.38468 0 CFG=2
M  V30 7 C 1.94702 -0.874698 0.762311 0
M  V30 8 O 1.96905 -0.50753 2.00045 0
M  V30 9 N 0.87036 -0.468274 -0.0732524 0
M  V30 10 C 0.847008 -0.957364 -1.4009 0
M  V30 11 C -0.114471 -2.08921 -1.65555 0
M  V30 12 C -0.639437 -2.80864 -0.498112 0
M  V30 13 C -2.06849 -3.16551 -0.435389 0
M  V30 14 C -3.08709 -2.23255 -0.942723 0
M  V30 15 C -3.49463 -1.1732 0.0679858 0
M  V30 16 O -3.34294 0.113172 -0.434013 0
M  V30 17 C -3.28533 1.10757 0.494901 0 CFG=1
M  V30 18 C -2.00608 1.90633 0.533399 0 CFG=1
M  V30 19 C -0.872643 1.32972 -0.306607 0 CFG=1
M  V30 20 C -0.0937299 0.422347 0.530239 0
M  V30 21 O -1.40271 0.943563 -1.48317 0
M  V30 22 O -2.20323 3.25237 0.138109 0
M  V30 23 C -4.38894 2.14434 0.404709 0 CFG=1
M  V30 24 C -5.76962 1.6493 0.5403 0
M  V30 25 O -6.09608 0.79625 -0.496952 0
M  V30 26 O -4.11984 3.02792 1.48026 0
M  V30 27 N 3.4746 -2.54257 1.57451 0
M  V30 28 H 5.06916 3.59021 1.07904 0
M  V30 29 H 4.08233 2.19431 1.32686 0
M  V30 30 H 6.16177 1.0955 1.20092 0
M  V30 31 H 6.75628 2.4133 0.17203 0
M  V30 32 H 5.25688 1.90225 -1.62389 0
M  V30 33 H 6.36971 0.549953 -1.28687 0
M  V30 34 H 4.08257 -0.224808 -1.76199 0
M  V30 35 H 3.40948 0.943487 -0.550141 0
M  V30 36 H 5.2497 -1.44516 0.0599591 0
M  V30 37 H 4.49948 -0.361349 1.24102 0
M  V30 38 H 3.00126 -2.3454 -0.469035 0
M  V30 39 H 1.85602 -1.29885 -1.69157 0
M  V30 40 H 0.649889 -0.181573 -2.17692 0
M  V30 41 H -0.910931 -1.73838 -2.36301 0
M  V30 42 H 0.439179 -2.82923 -2.31362 0
M  V30 43 H -0.312 -2.26664 0.440926 0
M  V30 44 H -0.0643971 -3.78199 -0.383757 0
M  V30 45 H -2.2566 -4.19552 -0.870508 0
M  V30 46 H -2.30696 -3.33437 0.663685 0
M  V30 47 H -4.01654 -2.82841 -1.20055 0
M  V30 48 H -2.86788 -1.69596 -1.87846 0
M  V30 49 H -2.7488 -1.27241 0.91076 0
M  V30 50 H -4.51572 -1.39795 0.438405 0
M  V30 51 H -3.41967 0.622782 1.50743 0
M  V30 52 H -1.61731 1.975 1.57293 0
M  V30 53 H -0.232322 2.23836 -0.567855 0
M  V30 54 H 0.505219 1.11093 1.22036 0
M  V30 55 H -0.741522 -0.0828888 1.27471 0
M  V30 56 H -1.34482 1.5753 -2.23546 0
M  V30 57 H -2.0841 3.36526 -0.838127 0
M  V30 58 H -4.23967 2.70878 -0.517925 0
M  V30 59 H -6.45086 2.54478 0.420482 0
M  V30 60 H -6.02476 1.24161 1.5378 0
M  V30 61 H -7.0723 0.706315 -0.637343 0
M  V30 62 H -4.84663 3.69978 1.45693 0
M  V30 63 H 4.06369 -3.29838 1.16942 0
M  V30 64 H 2.57659 -2.98085 1.8736 0
M  V30 END ATOM
M  V30 BEGIN BOND
M  V30 1 1 1 2
M  V30 2 1 2 3
M  V30 3 1 3 4
M  V30 4 1 4 5
M  V30 5 1 5 6
M  V30 6 1 6 7
M  V30 7 2 7 8
M  V30 8 1 7 9
M  V30 9 1 9 10
M  V30 10 1 10 11
M  V30 11 1 11 12
M  V30 12 1 12 13
M  V30 13 1 13 14
M  V30 14 1 14 15
M  V30 15 1 15 16
M  V30 16 1 16 17
M  V30 17 1 17 18
M  V30 18 1 18 19
M  V30 19 1 19 20
M  V30 20 1 19 21
M  V30 21 1 18 22
M  V30 22 1 17 23
M  V30 23 1 23 24
M  V30 24 1 24 25
M  V30 25 1 23 26
M  V30 26 1 6 27
M  V30 27 1 20 9
M  V30 28 1 1 28
M  V30 29 1 1 29
M  V30 30 1 2 30
M  V30 31 1 2 31
M  V30 32 1 3 32
M  V30 33 1 3 33
M  V30 34 1 4 34
M  V30 35 1 4 35
M  V30 36 1 5 36
M  V30 37 1 5 37
M  V30 38 1 6 38 CFG=3
M  V30 39 1 10 39
M  V30 40 1 10 40
M  V30 41 1 11 41
M  V30 42 1 11 42
M  V30 43 1 12 43
M  V30 44 1 12 44
M  V30 45 1 13 45
M  V30 46 1 13 46
M  V30 47 1 14 47
M  V30 48 1 14 48
M  V30 49 1 15 49
M  V30 50 1 15 50
M  V30 51 1 17 51 CFG=1
M  V30 52 1 18 52 CFG=1
M  V30 53 1 19 53 CFG=3
M  V30 54 1 20 54
M  V30 55 1 20 55
M  V30 56 1 21 56
M  V30 57 1 22 57
M  V30 58 1 23 58 CFG=3
M  V30 59 1 24 59
M  V30 60 1 24 60
M  V30 61 1 25 61
M  V30 62 1 26 62
M  V30 63 1 27 63
M  V30 64 1 27 64
M  V30 END BOND
M  V30 END CTAB
M  END
