
     RDKit          3D

  0  0  0  0  0  0  0  0  0  0999 V3000
M  V30 BEGIN CTAB
M  V30 COUNTS 66 68 0 0 0
M  V30 BEGIN ATOM
M  V30 1 C -3.41255 0.191658 -1.3038 0 CFG=2
M  V30 2 C -3.47298 1.67793 -1.296 0
M  V30 3 C -3.11856 2.33419 -0.0010483 0
M  V30 4 C -4.0238 1.98166 1.09046 0
M  V30 5 O -5.04855 1.27288 0.970078 0
M  V30 6 O -3.77366 2.44564 2.3936 0
M  V30 7 C -4.65203 2.10215 3.44612 0
M  V30 8 C -6.03595 2.64315 3.08527 0
M  V30 9 N -2.08379 -0.311655 -0.987487 0
M  V30 10 C -1.84611 -1.16701 0.113241 0
M  V30 11 O -2.84694 -1.48758 0.831019 0
M  V30 12 C -0.525427 -1.67764 0.440628 0
M  V30 13 C 0.573233 -1.43422 -0.3514 0
M  V30 14 C 1.81997 -1.93461 -0.00837135 0
M  V30 15 C 1.98725 -2.69221 1.14178 0
M  V30 16 C 3.30399 -3.21969 1.50258 0
M  V30 17 C 4.13594 -2.32643 2.36938 0
M  V30 18 C 4.42483 -1.01484 1.74248 0
M  V30 19 C 5.54292 -0.819929 0.94484 0
M  V30 20 C 5.81026 0.40614 0.362482 0
M  V30 21 C 4.95074 1.46315 0.574964 0
M  V30 22 N 3.85897 1.25815 1.3588 0
M  V30 23 C 3.59335 0.0689414 1.92782 0
M  V30 24 N 5.22583 2.62887 0.00696468 0
M  V30 25 C 6.29287 2.87942 -0.776398 0
M  V30 26 N 6.54487 4.13741 -1.36055 0
M  V30 27 N 7.14829 1.83674 -0.990972 0
M  V30 28 C 6.90495 0.633244 -0.431179 0
M  V30 29 N 7.802 -0.446888 -0.660321 0
M  V30 30 C 0.896434 -2.94389 1.94394 0
M  V30 31 C -0.335267 -2.44471 1.5973 0
M  V30 32 C -3.82829 -0.363453 -2.62872 0
M  V30 33 O -3.02493 -1.11985 -3.21694 0
M  V30 34 O -5.04325 -0.0670354 -3.19815 0
M  V30 35 C -5.47624 -0.561897 -4.43502 0
M  V30 36 C -5.54826 -2.06777 -4.45684 0
M  V30 37 H -4.09107 -0.229991 -0.564521 0
M  V30 38 H -4.50951 2.00015 -1.58198 0
M  V30 39 H -2.79414 2.10213 -2.08842 0
M  V30 40 H -2.05244 2.02924 0.21565 0
M  V30 41 H -3.13905 3.45361 -0.179278 0
M  V30 42 H -4.30824 2.59147 4.3792 0
M  V30 43 H -4.6927 1.01153 3.63292 0
M  V30 44 H -5.93391 3.45244 2.31541 0
M  V30 45 H -6.48638 3.13765 3.97192 0
M  V30 46 H -6.70992 1.83728 2.76848 0
M  V30 47 H -1.32528 0.00282132 -1.62719 0
M  V30 48 H 0.465386 -0.844371 -1.25551 0
M  V30 49 H 2.66153 -1.73411 -0.637509 0
M  V30 50 H 3.90816 -3.40506 0.568936 0
M  V30 51 H 3.20673 -4.2194 1.97131 0
M  V30 52 H 3.70869 -2.18557 3.38503 0
M  V30 53 H 5.11055 -2.84304 2.52451 0
M  V30 54 H 6.21397 -1.63885 0.777081 0
M  V30 55 H 2.71345 -0.0896562 2.55721 0
M  V30 56 H 6.16826 4.35544 -2.29354 0
M  V30 57 H 7.10518 4.83561 -0.852412 0
M  V30 58 H 8.21551 -0.614239 -1.60063 0
M  V30 59 H 8.06742 -1.09716 0.106844 0
M  V30 60 H 1.02862 -3.53036 2.83381 0
M  V30 61 H -1.22949 -2.61218 2.19278 0
M  V30 62 H -4.86642 -0.158397 -5.28653 0
M  V30 63 H -6.50905 -0.176345 -4.62315 0
M  V30 64 H -6.59911 -2.42329 -4.47158 0
M  V30 65 H -5.06771 -2.45765 -3.53784 0
M  V30 66 H -4.97917 -2.40972 -5.34153 0
M  V30 END ATOM
M  V30 BEGIN BOND
M  V30 1 1 1 2
M  V30 2 1 2 3
M  V30 3 1 3 4
M  V30 4 2 4 5
M  V30 5 1 4 6
M  V30 6 1 6 7
M  V30 7 1 7 8
M  V30 8 1 1 9
M  V30 9 1 9 10
M  V30 10 2 10 11
M  V30 11 1 10 12
M  V30 12 2 12 13
M  V30 13 1 13 14
M  V30 14 2 14 15
M  V30 15 1 15 16
M  V30 16 1 16 17
M  V30 17 1 17 18
M  V30 18 2 18 19
M  V30 19 1 19 20
M  V30 20 2 20 21
M  V30 21 1 21 22
M  V30 22 2 22 23
M  V30 23 1 21 24
M  V30 24 2 24 25
M  V30 25 1 25 26
M  V30 26 1 25 27
M  V30 27 2 27 28
M  V30 28 1 28 29
M  V30 29 1 15 30
M  V30 30 2 30 31
M  V30 31 1 1 32
M  V30 32 2 32 33
M  V30 33 1 32 34
M  V30 34 1 34 35
M  V30 35 1 35 36
M  V30 36 1 31 12
M  V30 37 1 23 18
M  V30 38 1 28 20
M  V30 39 1 1 37 CFG=1
M  V30 40 1 2 38
M  V30 41 1 2 39
M  V30 42 1 3 40
M  V30 43 1 3 41
M  V30 44 1 7 42
M  V30 45 1 7 43
M  V30 46 1 8 44
M  V30 47 1 8 45
M  V30 48 1 8 46
M  V30 49 1 9 47
M  V30 50 1 13 48
M  V30 51 1 14 49
M  V30 52 1 16 50
M  V30 53 1 16 51
M  V30 54 1 17 52
M  V30 55 1 17 53
M  V30 56 1 19 54
M  V30 57 1 23 55
M  V30 58 1 26 56
M  V30 59 1 26 57
M  V30 60 1 29 58
M  V30 61 1 29 59
M  V30 62 1 30 60
M  V30 63 1 31 61
M  V30 64 1 35 62
M  V30 65 1 35 63
M  V30 66 1 36 64
M  V30 67 1 36 65
M  V30 68 1 36 66
M  V30 END BOND
M  V30 END CTAB
M  END
