
     RDKit          3D

  0  0  0  0  0  0  0  0  0  0999 V3000
M  V30 BEGIN CTAB
M  V30 COUNTS 21 21 0 0 0
M  V30 BEGIN ATOM
M  V30 1 C -3.03303 0.84017 -0.000156918 0
M  V30 2 C -1.51767 0.816269 -0.10691 0
M  V30 3 C -0.976587 -0.424943 0.556616 0 CFG=2
M  V30 4 C 0.499449 -0.431059 0.442826 0
M  V30 5 N 1.33359 -1.46903 0.626695 0
M  V30 6 N 2.59161 -1.10248 0.440548 0
M  V30 7 C 2.57254 0.205484 0.128275 0
M  V30 8 N 1.29264 0.616202 0.129676 0
M  V30 9 N 3.66502 1.067 -0.163662 0
M  V30 10 N -1.50638 -1.57275 -0.110591 0
M  V30 11 H -3.44298 -0.0672815 -0.462396 0
M  V30 12 H -3.27082 0.790096 1.08219 0
M  V30 13 H -3.45289 1.71947 -0.49835 0
M  V30 14 H -1.12546 1.72102 0.400711 0
M  V30 15 H -1.1794 0.843631 -1.14844 0
M  V30 16 H -1.31867 -0.440567 1.60717 0
M  V30 17 H 3.45495 -1.70696 0.518143 0
M  V30 18 H 4.51918 0.607162 -0.584563 0
M  V30 19 H 3.64334 2.08541 0.0181506 0
M  V30 20 H -1.52663 -2.43466 0.43631 0
M  V30 21 H -1.22182 -1.66217 -1.09683 0
M  V30 END ATOM
M  V30 BEGIN BOND
M  V30 1 1 1 2
M  V30 2 1 2 3
M  V30 3 1 3 4
M  V30 4 2 4 5
M  V30 5 1 5 6
M  V30 6 1 6 7
M  V30 7 2 7 8
M  V30 8 1 7 9
M  V30 9 1 3 10
M  V30 10 1 8 4
M  V30 11 1 1 11
M  V30 12 1 1 12
M  V30 13 1 1 13
M  V30 14 1 2 14
M  V30 15 1 2 15
M  V30 16 1 3 16 CFG=1
M  V30 17 1 6 17
M  V30 18 1 9 18
M  V30 19 1 9 19
M  V30 20 1 10 20
M  V30 21 1 10 21
M  V30 END BOND
M  V30 END CTAB
M  END
