
     RDKit          3D

  0  0  0  0  0  0  0  0  0  0999 V3000
M  V30 BEGIN CTAB
M  V30 COUNTS 32 33 0 0 0
M  V30 BEGIN ATOM
M  V30 1 C -4.55806 -0.954152 -0.747627 0
M  V30 2 C -3.17023 -0.99764 -0.203482 0
M  V30 3 C -3.05658 -0.291453 1.15805 0
M  V30 4 C -2.35223 0.208427 -0.0754652 0
M  V30 5 C -0.875937 0.139782 -0.0444265 0
M  V30 6 N -0.0393516 -0.796439 -0.477761 0
M  V30 7 C 1.20739 -0.378903 -0.257023 0
M  V30 8 N 1.16303 0.837605 0.323966 0
M  V30 9 C -0.118487 1.17345 0.463294 0
M  V30 10 N -0.601861 2.3895 1.05659 0
M  V30 11 N 2.22576 1.642 0.745381 0
M  V30 12 C 2.5241 -1.02493 -0.573417 0
M  V30 13 C 3.31496 -1.35118 0.671859 0
M  V30 14 C 3.38788 -0.0595593 -1.37605 0
M  V30 15 H -4.90441 0.00689443 -1.11282 0
M  V30 16 H -4.75955 -1.76535 -1.49963 0
M  V30 17 H -5.26582 -1.22178 0.0974071 0
M  V30 18 H -2.61612 -1.95194 -0.309671 0
M  V30 19 H -2.53532 -0.805504 1.95362 0
M  V30 20 H -3.90887 0.351292 1.48142 0
M  V30 21 H -2.7762 1.11543 -0.599082 0
M  V30 22 H -1.26132 3.03263 0.558217 0
M  V30 23 H -0.24907 2.57505 2.00092 0
M  V30 24 H 2.90783 1.31025 1.4852 0
M  V30 25 H 2.41178 2.59809 0.374414 0
M  V30 26 H 2.39046 -1.98575 -1.12654 0
M  V30 27 H 2.65964 -1.40424 1.54249 0
M  V30 28 H 4.16825 -0.647881 0.842643 0
M  V30 29 H 3.81162 -2.35744 0.604374 0
M  V30 30 H 3.97186 -0.564378 -2.17915 0
M  V30 31 H 4.16419 0.4422 -0.75212 0
M  V30 32 H 2.74067 0.735936 -1.77577 0
M  V30 END ATOM
M  V30 BEGIN BOND
M  V30 1 1 1 2
M  V30 2 1 2 3
M  V30 3 1 3 4
M  V30 4 1 4 5
M  V30 5 1 5 6
M  V30 6 2 6 7
M  V30 7 1 7 8
M  V30 8 1 8 9
M  V30 9 1 9 10
M  V30 10 1 8 11
M  V30 11 1 7 12
M  V30 12 1 12 13
M  V30 13 1 12 14
M  V30 14 1 4 2
M  V30 15 2 9 5
M  V30 16 1 1 15
M  V30 17 1 1 16
M  V30 18 1 1 17
M  V30 19 1 2 18
M  V30 20 1 3 19
M  V30 21 1 3 20
M  V30 22 1 4 21
M  V30 23 1 10 22
M  V30 24 1 10 23
M  V30 25 1 11 24
M  V30 26 1 11 25
M  V30 27 1 12 26
M  V30 28 1 13 27
M  V30 29 1 13 28
M  V30 30 1 13 29
M  V30 31 1 14 30
M  V30 32 1 14 31
M  V30 33 1 14 32
M  V30 END BOND
M  V30 END CTAB
M  END
