
     RDKit          3D

  0  0  0  0  0  0  0  0  0  0999 V3000
M  V30 BEGIN CTAB
M  V30 COUNTS 69 73 0 0 0
M  V30 BEGIN ATOM
M  V30 1 C -5.92566 -0.0590454 2.64047 0
M  V30 2 C -4.56351 -0.709571 2.54204 0
M  V30 3 C -4.70911 -2.11544 2.03359 0
M  V30 4 N -3.9761 -0.770874 3.876 0
M  V30 5 C -3.67697 0.0611546 1.66956 0
M  V30 6 C -3.9034 0.322822 0.38406 0
M  V30 7 C -5.11014 -0.187201 -0.197444 0
M  V30 8 N -6.10903 -0.62615 -0.651108 0
M  V30 9 C -2.9331 1.07381 -0.352442 0
M  V30 10 O -1.87564 1.44699 0.275696 0
M  V30 11 N -2.9941 1.4618 -1.71028 0
M  V30 12 C -4.06897 1.2204 -2.6438 0
M  V30 13 C -3.79166 2.05526 -3.88305 0
M  V30 14 C -2.75991 3.04867 -3.39138 0
M  V30 15 C -1.95914 2.18262 -2.45291 0 CFG=2
M  V30 16 C -1.07623 1.29375 -3.25125 0
M  V30 17 N -0.336431 0.305694 -2.50081 0
M  V30 18 N 0.850074 0.537669 -1.92854 0
M  V30 19 C 1.28452 -0.562129 -1.2925 0
M  V30 20 C 0.316828 -1.52255 -1.48366 0
M  V30 21 C 0.157327 -2.84067 -1.11869 0
M  V30 22 N 1.1555 -3.4741 -0.368077 0
M  V30 23 N -0.925655 -3.58718 -1.4661 0
M  V30 24 C -1.89168 -3.00983 -2.20532 0
M  V30 25 N -1.77132 -1.72487 -2.58219 0
M  V30 26 C -0.712796 -0.957286 -2.25567 0
M  V30 27 C 2.54498 -0.70043 -0.57174 0
M  V30 28 C 3.76119 -0.539198 -1.24756 0
M  V30 29 F 3.66212 -0.283828 -2.59212 0
M  V30 30 C 4.96575 -0.63382 -0.598972 0
M  V30 31 C 5.05051 -0.893263 0.757348 0
M  V30 32 O 6.2715 -0.989875 1.41207 0
M  V30 33 C 6.96348 0.0429655 1.98654 0
M  V30 34 C 7.88814 0.797181 1.27334 0
M  V30 35 C 8.56638 1.82927 1.88426 0
M  V30 36 C 8.36929 2.16574 3.21379 0
M  V30 37 C 7.45125 1.41791 3.92506 0
M  V30 38 C 6.76664 0.376658 3.30982 0
M  V30 39 C 3.84617 -1.04888 1.40978 0
M  V30 40 C 2.6306 -0.957491 0.777005 0
M  V30 41 H -6.71496 -0.745899 2.32506 0
M  V30 42 H -6.136 0.187501 3.71779 0
M  V30 43 H -5.91279 0.882132 2.08585 0
M  V30 44 H -5.78062 -2.33285 1.83184 0
M  V30 45 H -4.06118 -2.23551 1.14962 0
M  V30 46 H -4.32337 -2.83108 2.82084 0
M  V30 47 H -3.15825 -1.38937 3.90724 0
M  V30 48 H -3.71444 0.182644 4.21487 0
M  V30 49 H -2.73957 0.468061 2.08707 0
M  V30 50 H -4.23154 0.170364 -2.87399 0
M  V30 51 H -5.04595 1.62495 -2.2398 0
M  V30 52 H -3.4656 1.45626 -4.73836 0
M  V30 53 H -4.68871 2.64803 -4.18446 0
M  V30 54 H -3.23222 3.90972 -2.88376 0
M  V30 55 H -2.15739 3.38553 -4.27452 0
M  V30 56 H -1.35702 2.81172 -1.7407 0
M  V30 57 H -0.358754 1.97584 -3.80051 0
M  V30 58 H -1.66291 0.824966 -4.07954 0
M  V30 59 H 2.08423 -3.62149 -0.806701 0
M  V30 60 H 0.939736 -3.77764 0.602201 0
M  V30 61 H -2.74189 -3.62499 -2.46649 0
M  V30 62 H 5.89117 -0.502306 -1.16181 0
M  V30 63 H 8.02688 0.516109 0.231288 0
M  V30 64 H 9.276 2.3857 1.28563 0
M  V30 65 H 8.91456 2.9819 3.67335 0
M  V30 66 H 7.26323 1.64803 4.9789 0
M  V30 67 H 6.03744 -0.218595 3.87262 0
M  V30 68 H 3.91595 -1.25519 2.48542 0
M  V30 69 H 1.70226 -1.08225 1.35622 0
M  V30 END ATOM
M  V30 BEGIN BOND
M  V30 1 1 1 2
M  V30 2 1 2 3
M  V30 3 1 2 4
M  V30 4 1 2 5
M  V30 5 2 5 6 CFG=2
M  V30 6 1 6 7
M  V30 7 3 7 8
M  V30 8 1 6 9
M  V30 9 2 9 10
M  V30 10 1 9 11
M  V30 11 1 11 12
M  V30 12 1 12 13
M  V30 13 1 13 14
M  V30 14 1 14 15
M  V30 15 1 15 16
M  V30 16 1 16 17
M  V30 17 1 17 18
M  V30 18 2 18 19
M  V30 19 1 19 20
M  V30 20 2 20 21
M  V30 21 1 21 22
M  V30 22 1 21 23
M  V30 23 2 23 24
M  V30 24 1 24 25
M  V30 25 2 25 26
M  V30 26 1 19 27
M  V30 27 2 27 28
M  V30 28 1 28 29
M  V30 29 1 28 30
M  V30 30 2 30 31
M  V30 31 1 31 32
M  V30 32 1 32 33
M  V30 33 2 33 34
M  V30 34 1 34 35
M  V30 35 2 35 36
M  V30 36 1 36 37
M  V30 37 2 37 38
M  V30 38 1 31 39
M  V30 39 2 39 40
M  V30 40 1 15 11
M  V30 41 1 26 17
M  V30 42 1 40 27
M  V30 43 1 26 20
M  V30 44 1 38 33
M  V30 45 1 1 41
M  V30 46 1 1 42
M  V30 47 1 1 43
M  V30 48 1 3 44
M  V30 49 1 3 45
M  V30 50 1 3 46
M  V30 51 1 4 47
M  V30 52 1 4 48
M  V30 53 1 5 49
M  V30 54 1 12 50
M  V30 55 1 12 51
M  V30 56 1 13 52
M  V30 57 1 13 53
M  V30 58 1 14 54
M  V30 59 1 14 55
M  V30 60 1 15 56 CFG=1
M  V30 61 1 16 57
M  V30 62 1 16 58
M  V30 63 1 22 59
M  V30 64 1 22 60
M  V30 65 1 24 61
M  V30 66 1 30 62
M  V30 67 1 34 63
M  V30 68 1 35 64
M  V30 69 1 36 65
M  V30 70 1 37 66
M  V30 71 1 38 67
M  V30 72 1 39 68
M  V30 73 1 40 69
M  V30 END BOND
M  V30 END CTAB
M  END
