
     RDKit          3D

  0  0  0  0  0  0  0  0  0  0999 V3000
M  V30 BEGIN CTAB
M  V30 COUNTS 28 29 0 0 0
M  V30 BEGIN ATOM
M  V30 1 N -5.58442 0.201986 -0.404044 0
M  V30 2 C -4.15721 0.273821 -0.342688 0
M  V30 3 N -3.39492 -0.488634 -1.1477 0
M  V30 4 C -2.04515 -0.423138 -1.09222 0
M  V30 5 N -1.23585 -1.23569 -1.95012 0
M  V30 6 C -1.38859 0.419501 -0.217027 0
M  V30 7 N 0.0336675 0.479995 -0.167462 0
M  V30 8 C 0.788568 -0.503127 0.0858641 0
M  V30 9 C 2.23891 -0.303024 0.105464 0
M  V30 10 C 3.09968 -1.34294 0.376143 0
M  V30 11 C 4.44821 -1.10836 0.383536 0
M  V30 12 C 5.00431 0.137035 0.129784 0
M  V30 13 C 4.13086 1.15458 -0.136459 0
M  V30 14 C 2.76879 0.942218 -0.149418 0
M  V30 15 C -2.18563 1.19463 0.60159 0
M  V30 16 O -1.61899 1.98685 1.4249 0
M  V30 17 N -3.52406 1.09577 0.51109 0
M  V30 18 H -6.15535 1.03395 -0.700116 0
M  V30 19 H -6.12669 -0.651446 -0.166727 0
M  V30 20 H -1.33228 -2.27671 -1.89263 0
M  V30 21 H -0.586951 -0.774689 -2.59424 0
M  V30 22 H 0.352873 -1.46963 0.282649 0
M  V30 23 H 2.70864 -2.34322 0.582424 0
M  V30 24 H 5.16291 -1.90447 0.593227 0
M  V30 25 H 6.07279 0.288947 0.143231 0
M  V30 26 H 4.5495 2.1359 -0.337266 0
M  V30 27 H 2.11195 1.80042 -0.370419 0
M  V30 28 H -4.13557 1.67949 1.12767 0
M  V30 END ATOM
M  V30 BEGIN BOND
M  V30 1 1 1 2
M  V30 2 2 2 3
M  V30 3 1 3 4
M  V30 4 1 4 5
M  V30 5 2 4 6
M  V30 6 1 6 7
M  V30 7 2 7 8
M  V30 8 1 8 9
M  V30 9 2 9 10
M  V30 10 1 10 11
M  V30 11 2 11 12
M  V30 12 1 12 13
M  V30 13 2 13 14
M  V30 14 1 6 15
M  V30 15 2 15 16
M  V30 16 1 15 17
M  V30 17 1 17 2
M  V30 18 1 14 9
M  V30 19 1 1 18
M  V30 20 1 1 19
M  V30 21 1 5 20
M  V30 22 1 5 21
M  V30 23 1 8 22
M  V30 24 1 10 23
M  V30 25 1 11 24
M  V30 26 1 12 25
M  V30 27 1 13 26
M  V30 28 1 14 27
M  V30 29 1 17 28
M  V30 END BOND
M  V30 END CTAB
M  END
