
     RDKit          3D

  0  0  0  0  0  0  0  0  0  0999 V3000
M  V30 BEGIN CTAB
M  V30 COUNTS 37 39 0 0 0
M  V30 BEGIN ATOM
M  V30 1 N 6.02165 -0.971829 -1.37571 0
M  V30 2 C 5.1754 -0.0430144 -0.697391 0
M  V30 3 N 5.61768 1.15664 -0.291253 0
M  V30 4 C 4.80605 2.04306 0.35732 0
M  V30 5 N 5.28712 3.30259 0.77861 0
M  V30 6 N 3.53592 1.6389 0.563687 0
M  V30 7 C 3.04202 0.457863 0.181759 0
M  V30 8 N 3.89867 -0.386767 -0.461737 0
M  V30 9 C 1.66359 0.056122 0.422366 0
M  V30 10 C 0.797701 0.913125 1.07429 0
M  V30 11 C -0.506502 0.577311 1.32191 0
M  V30 12 C -1.03437 -0.616742 0.944278 0
M  V30 13 C -0.163188 -1.48789 0.284449 0
M  V30 14 C 1.1409 -1.14869 0.0384805 0
M  V30 15 O -2.32666 -0.943442 1.19155 0
M  V30 16 C -3.41933 -1.04466 0.389656 0
M  V30 17 C -4.04494 -2.30774 0.275759 0
M  V30 18 C -5.14474 -2.4637 -0.515519 0
M  V30 19 C -5.69658 -1.4248 -1.2324 0
M  V30 20 C -5.07398 -0.203695 -1.10834 0
M  V30 21 C -3.9473 -0.000645691 -0.309666 0
M  V30 22 C -3.39917 1.39304 -0.268887 0
M  V30 23 H 6.18345 -1.90961 -0.938167 0
M  V30 24 H 6.48156 -0.770155 -2.2715 0
M  V30 25 H 5.23572 4.10252 0.127897 0
M  V30 26 H 5.68681 3.43636 1.72024 0
M  V30 27 H 1.17968 1.87587 1.39197 0
M  V30 28 H -1.10027 1.33897 1.85186 0
M  V30 29 H -0.573291 -2.43445 -0.0173193 0
M  V30 30 H 1.78409 -1.86092 -0.479847 0
M  V30 31 H -3.61565 -3.12127 0.834966 0
M  V30 32 H -5.57696 -3.47378 -0.554842 0
M  V30 33 H -6.56043 -1.55906 -1.85088 0
M  V30 34 H -5.47103 0.637771 -1.65194 0
M  V30 35 H -3.26072 1.75167 0.748714 0
M  V30 36 H -2.4803 1.39931 -0.882742 0
M  V30 37 H -4.14259 2.09174 -0.73538 0
M  V30 END ATOM
M  V30 BEGIN BOND
M  V30 1 1 1 2
M  V30 2 2 2 3
M  V30 3 1 3 4
M  V30 4 1 4 5
M  V30 5 2 4 6
M  V30 6 1 6 7
M  V30 7 2 7 8
M  V30 8 1 7 9
M  V30 9 2 9 10
M  V30 10 1 10 11
M  V30 11 2 11 12
M  V30 12 1 12 13
M  V30 13 2 13 14
M  V30 14 1 12 15
M  V30 15 1 15 16
M  V30 16 2 16 17
M  V30 17 1 17 18
M  V30 18 2 18 19
M  V30 19 1 19 20
M  V30 20 2 20 21
M  V30 21 1 21 22
M  V30 22 1 8 2
M  V30 23 1 14 9
M  V30 24 1 21 16
M  V30 25 1 1 23
M  V30 26 1 1 24
M  V30 27 1 5 25
M  V30 28 1 5 26
M  V30 29 1 10 27
M  V30 30 1 11 28
M  V30 31 1 13 29
M  V30 32 1 14 30
M  V30 33 1 17 31
M  V30 34 1 18 32
M  V30 35 1 19 33
M  V30 36 1 20 34
M  V30 37 1 22 35
M  V30 38 1 22 36
M  V30 39 1 22 37
M  V30 END BOND
M  V30 END CTAB
M  END
