
     RDKit          3D

  0  0  0  0  0  0  0  0  0  0999 V3000
M  V30 BEGIN CTAB
M  V30 COUNTS 36 38 0 0 0
M  V30 BEGIN ATOM
M  V30 1 N -7.96032 -0.559965 -1.18109 0
M  V30 2 C -6.92995 -0.256732 -0.753484 0
M  V30 3 C -5.61166 0.12129 -0.233123 0
M  V30 4 C -4.48329 -0.387744 -0.805408 0
M  V30 5 C -3.18763 -0.0656018 -0.354384 0
M  V30 6 C -3.17133 0.80041 0.704827 0
M  V30 7 N -4.30417 1.3141 1.28261 0
M  V30 8 C -5.52622 0.990599 0.833177 0
M  V30 9 N -6.71465 1.51075 1.41635 0
M  V30 10 S -1.50118 0.992755 1.01372 0
M  V30 11 C -0.886106 -0.0289563 -0.207913 0
M  V30 12 C -2.00371 -0.493307 -0.824848 0
M  V30 13 N -1.89113 -1.42124 -1.95413 0
M  V30 14 C 0.540656 -0.329446 -0.512114 0
M  V30 15 O 0.722905 -1.1069 -1.45414 0
M  V30 16 N 1.55011 0.249491 0.239929 0
M  V30 17 C 2.926 0.066576 0.0771808 0
M  V30 18 C 3.51858 -0.727745 -0.86723 0
M  V30 19 C 4.91154 -0.831475 -0.932408 0
M  V30 20 C 5.69876 -0.138065 -0.0503144 0
M  V30 21 C 5.1284 0.661415 0.901377 0
M  V30 22 C 3.78648 0.756787 0.958598 0
M  V30 23 Br 3.04715 1.90102 2.32397 0
M  V30 24 C 7.17103 -0.305978 -0.190386 0
M  V30 25 H -4.64761 -1.06764 -1.64367 0
M  V30 26 H -7.23665 0.944248 2.12056 0
M  V30 27 H -7.10581 2.44992 1.17544 0
M  V30 28 H -1.91788 -1.01601 -2.8919 0
M  V30 29 H -1.79274 -2.42043 -1.71323 0
M  V30 30 H 1.20904 0.905127 1.02602 0
M  V30 31 H 2.94768 -1.29516 -1.58582 0
M  V30 32 H 5.36031 -1.46622 -1.68818 0
M  V30 33 H 5.78834 1.19797 1.58618 0
M  V30 34 H 7.51955 -1.19545 0.360674 0
M  V30 35 H 7.39561 -0.351836 -1.26668 0
M  V30 36 H 7.64989 0.603456 0.235219 0
M  V30 END ATOM
M  V30 BEGIN BOND
M  V30 1 3 1 2
M  V30 2 1 2 3
M  V30 3 2 3 4
M  V30 4 1 4 5
M  V30 5 2 5 6
M  V30 6 1 6 7
M  V30 7 2 7 8
M  V30 8 1 8 9
M  V30 9 1 6 10
M  V30 10 1 10 11
M  V30 11 2 11 12
M  V30 12 1 12 13
M  V30 13 1 11 14
M  V30 14 2 14 15
M  V30 15 1 14 16
M  V30 16 1 16 17
M  V30 17 2 17 18
M  V30 18 1 18 19
M  V30 19 2 19 20
M  V30 20 1 20 21
M  V30 21 2 21 22
M  V30 22 1 22 23
M  V30 23 1 20 24
M  V30 24 1 8 3
M  V30 25 1 22 17
M  V30 26 1 12 5
M  V30 27 1 4 25
M  V30 28 1 9 26
M  V30 29 1 9 27
M  V30 30 1 13 28
M  V30 31 1 13 29
M  V30 32 1 16 30
M  V30 33 1 18 31
M  V30 34 1 19 32
M  V30 35 1 21 33
M  V30 36 1 24 34
M  V30 37 1 24 35
M  V30 38 1 24 36
M  V30 END BOND
M  V30 END CTAB
M  END
