
     RDKit          3D

  0  0  0  0  0  0  0  0  0  0999 V3000
M  V30 BEGIN CTAB
M  V30 COUNTS 23 23 0 0 0
M  V30 BEGIN ATOM
M  V30 1 N -3.89205 0.462426 -0.0391723 0
M  V30 2 C -2.71745 1.26509 -0.260449 0
M  V30 3 C -1.59819 0.324406 -0.730268 0
M  V30 4 N -1.3966 -0.622718 0.300991 0
M  V30 5 S -0.204561 -1.79616 0.0432166 0
M  V30 6 O -0.457032 -2.61276 -1.21474 0
M  V30 7 O -0.0672218 -2.7523 1.16365 0
M  V30 8 C 1.3438 -0.96551 -0.137256 0
M  V30 9 C 2.47312 -1.09358 0.63279 0
M  V30 10 N 3.50457 -0.380274 0.315935 0
M  V30 11 C 3.45264 0.44078 -0.721087 0
M  V30 12 S 1.85982 0.198944 -1.28808 0
M  V30 13 N 4.46144 1.3038 -1.23417 0
M  V30 14 H -4.7516 0.891458 -0.417863 0
M  V30 15 H -3.97202 0.210649 0.969775 0
M  V30 16 H -2.92167 1.99369 -1.07637 0
M  V30 17 H -2.40473 1.79593 0.662236 0
M  V30 18 H -0.709443 0.933731 -0.889043 0
M  V30 19 H -1.90383 -0.0951643 -1.70289 0
M  V30 20 H -2.2532 -0.960081 0.777035 0
M  V30 21 H 2.4765 -1.79488 1.49634 0
M  V30 22 H 5.1655 1.7292 -0.603882 0
M  V30 23 H 4.51219 1.52334 -2.24395 0
M  V30 END ATOM
M  V30 BEGIN BOND
M  V30 1 1 1 2
M  V30 2 1 2 3
M  V30 3 1 3 4
M  V30 4 1 4 5
M  V30 5 2 5 6
M  V30 6 2 5 7
M  V30 7 1 5 8
M  V30 8 2 8 9
M  V30 9 1 9 10
M  V30 10 2 10 11
M  V30 11 1 11 12
M  V30 12 1 11 13
M  V30 13 1 12 8
M  V30 14 1 1 14
M  V30 15 1 1 15
M  V30 16 1 2 16
M  V30 17 1 2 17
M  V30 18 1 3 18
M  V30 19 1 3 19
M  V30 20 1 4 20
M  V30 21 1 9 21
M  V30 22 1 13 22
M  V30 23 1 13 23
M  V30 END BOND
M  V30 END CTAB
M  END
