
     RDKit          3D

  0  0  0  0  0  0  0  0  0  0999 V3000
M  V30 BEGIN CTAB
M  V30 COUNTS 27 28 0 0 0
M  V30 BEGIN ATOM
M  V30 1 C -3.34078 0.967251 -0.874691 0
M  V30 2 C -2.63746 -0.1013 -1.64045 0
M  V30 3 O -1.4101 -0.476613 -1.06276 0
M  V30 4 C -1.64492 -0.955758 0.213903 0
M  V30 5 C -0.843193 -2.14008 0.70234 0
M  V30 6 C -0.640235 -0.748596 1.28234 0
M  V30 7 C 0.697768 -0.189297 0.969578 0
M  V30 8 N 1.22501 -0.269381 -0.268411 0
M  V30 9 C 2.44091 0.23357 -0.5723 0
M  V30 10 N 3.00634 0.153962 -1.87672 0
M  V30 11 N 3.11768 0.828194 0.426024 0
M  V30 12 C 2.63172 0.930526 1.6729 0
M  V30 13 N 1.41455 0.414119 1.92911 0
M  V30 14 N 3.42893 1.57775 2.65134 0
M  V30 15 H -4.42184 0.772372 -0.892004 0
M  V30 16 H -3.10934 1.98195 -1.28056 0
M  V30 17 H -3.0095 1.00105 0.184492 0
M  V30 18 H -3.31278 -0.970304 -1.73929 0
M  V30 19 H -2.42314 0.240895 -2.67531 0
M  V30 20 H -2.70178 -0.973204 0.568375 0
M  V30 21 H -1.33196 -2.90758 1.31939 0
M  V30 22 H -0.0960601 -2.54741 -0.00396895 0
M  V30 23 H -0.952484 -0.616012 2.33238 0
M  V30 24 H 3.42748 -0.766229 -2.20173 0
M  V30 25 H 3.04091 0.93079 -2.54353 0
M  V30 26 H 3.48945 1.18554 3.60958 0
M  V30 27 H 3.95481 2.44379 2.4173 0
M  V30 END ATOM
M  V30 BEGIN BOND
M  V30 1 1 1 2
M  V30 2 1 2 3
M  V30 3 1 3 4
M  V30 4 1 4 5
M  V30 5 1 5 6
M  V30 6 1 6 7
M  V30 7 2 7 8
M  V30 8 1 8 9
M  V30 9 1 9 10
M  V30 10 2 9 11
M  V30 11 1 11 12
M  V30 12 2 12 13
M  V30 13 1 12 14
M  V30 14 1 6 4
M  V30 15 1 13 7
M  V30 16 1 1 15
M  V30 17 1 1 16
M  V30 18 1 1 17
M  V30 19 1 2 18
M  V30 20 1 2 19
M  V30 21 1 4 20
M  V30 22 1 5 21
M  V30 23 1 5 22
M  V30 24 1 6 23
M  V30 25 1 10 24
M  V30 26 1 10 25
M  V30 27 1 14 26
M  V30 28 1 14 27
M  V30 END BOND
M  V30 END CTAB
M  END
