
     RDKit          3D

  0  0  0  0  0  0  0  0  0  0999 V3000
M  V30 BEGIN CTAB
M  V30 COUNTS 37 38 0 0 0
M  V30 BEGIN ATOM
M  V30 1 C 7.24064 1.23402 0.669077 0
M  V30 2 C 5.85346 0.695937 0.479695 0
M  V30 3 C 4.95857 1.35112 -0.35113 0
M  V30 4 C 3.67553 0.858294 -0.529719 0
M  V30 5 C 3.32718 -0.293037 0.141205 0
M  V30 6 N 4.21575 -0.885776 0.925282 0
M  V30 7 N 5.45216 -0.420494 1.1042 0
M  V30 8 C 1.99102 -0.854206 -0.0108224 0
M  V30 9 N 0.959026 -0.404042 -0.75302 0
M  V30 10 C -0.0989922 -1.22238 -0.60891 0
M  V30 11 O 0.283134 -2.16343 0.213489 0
M  V30 12 N 1.52537 -1.96666 0.584579 0
M  V30 13 C -1.42739 -1.08249 -1.2535 0 CFG=2
M  V30 14 C -2.46183 -0.615988 -0.223609 0
M  V30 15 C -3.75794 -0.507266 -0.971442 0
M  V30 16 C -4.96015 -0.110085 -0.194485 0
M  V30 17 C -4.93682 1.21847 0.480606 0
M  V30 18 N -3.93386 1.39579 1.48378 0
M  V30 19 N -1.91862 -2.33544 -1.79044 0
M  V30 20 H 7.30545 2.2719 0.330062 0
M  V30 21 H 7.97924 0.602383 0.145207 0
M  V30 22 H 7.42845 1.22457 1.76612 0
M  V30 23 H 5.26334 2.24309 -0.856577 0
M  V30 24 H 2.9807 1.36939 -1.17648 0
M  V30 25 H -1.43083 -0.353573 -2.06753 0
M  V30 26 H -2.56552 -1.32805 0.612484 0
M  V30 27 H -2.14166 0.378481 0.177277 0
M  V30 28 H -3.9384 -1.4651 -1.55514 0
M  V30 29 H -3.67161 0.253356 -1.81274 0
M  V30 30 H -5.81962 -0.0644087 -0.939475 0
M  V30 31 H -5.25606 -0.910522 0.546387 0
M  V30 32 H -4.73626 1.99545 -0.314833 0
M  V30 33 H -5.95432 1.50495 0.871109 0
M  V30 34 H -3.56854 2.36349 1.47844 0
M  V30 35 H -4.37491 1.2079 2.41861 0
M  V30 36 H -2.42344 -2.23315 -2.68774 0
M  V30 37 H -1.06225 -2.95248 -1.90128 0
M  V30 END ATOM
M  V30 BEGIN BOND
M  V30 1 1 1 2
M  V30 2 2 2 3
M  V30 3 1 3 4
M  V30 4 2 4 5
M  V30 5 1 5 6
M  V30 6 2 6 7
M  V30 7 1 5 8
M  V30 8 1 8 9
M  V30 9 2 9 10
M  V30 10 1 10 11
M  V30 11 1 11 12
M  V30 12 1 10 13
M  V30 13 1 13 14
M  V30 14 1 14 15
M  V30 15 1 15 16
M  V30 16 1 16 17
M  V30 17 1 17 18
M  V30 18 1 13 19
M  V30 19 1 7 2
M  V30 20 2 12 8
M  V30 21 1 1 20
M  V30 22 1 1 21
M  V30 23 1 1 22
M  V30 24 1 3 23
M  V30 25 1 4 24
M  V30 26 1 13 25 CFG=3
M  V30 27 1 14 26
M  V30 28 1 14 27
M  V30 29 1 15 28
M  V30 30 1 15 29
M  V30 31 1 16 30
M  V30 32 1 16 31
M  V30 33 1 17 32
M  V30 34 1 17 33
M  V30 35 1 18 34
M  V30 36 1 18 35
M  V30 37 1 19 36
M  V30 38 1 19 37
M  V30 END BOND
M  V30 END CTAB
M  END
