
     RDKit          3D

  0  0  0  0  0  0  0  0  0  0999 V3000
M  V30 BEGIN CTAB
M  V30 COUNTS 30 30 0 0 0
M  V30 BEGIN ATOM
M  V30 1 N -3.72863 1.71579 -0.955397 0
M  V30 2 N -2.83516 0.659784 -0.867513 0
M  V30 3 C -3.00778 -0.266693 -0.0102619 0
M  V30 4 S -2.00981 -1.67886 0.267867 0
M  V30 5 C -0.417064 -1.76347 -0.472041 0
M  V30 6 C 0.667117 -0.93537 0.143256 0
M  V30 7 C 0.389067 0.500802 0.130843 0
M  V30 8 C 1.54583 1.36524 0.58745 0
M  V30 9 C 2.88013 0.868356 0.179757 0
M  V30 10 C 3.05721 -0.60722 0.124874 0
M  V30 11 C 1.91804 -1.17666 -0.721993 0
M  V30 12 O 1.75792 -0.366281 -1.84573 0
M  V30 13 N -4.20437 -0.165826 0.808077 0
M  V30 14 H -4.69745 1.67825 -0.571032 0
M  V30 15 H -3.43153 2.59704 -1.42603 0
M  V30 16 H -0.444201 -1.56109 -1.60291 0
M  V30 17 H -0.11064 -2.86934 -0.47534 0
M  V30 18 H 0.905141 -1.27999 1.18581 0
M  V30 19 H -0.438186 0.727574 0.825369 0
M  V30 20 H 0.0836432 0.806642 -0.888028 0
M  V30 21 H 1.38509 2.36781 0.134584 0
M  V30 22 H 1.50716 1.50756 1.68596 0
M  V30 23 H 3.18005 1.28938 -0.817043 0
M  V30 24 H 3.66599 1.26834 0.885511 0
M  V30 25 H 3.06728 -1.03437 1.14275 0
M  V30 26 H 4.03703 -0.823229 -0.329286 0
M  V30 27 H 2.04968 -2.23316 -0.946226 0
M  V30 28 H 2.53842 -0.335448 -2.42736 0
M  V30 29 H -4.16318 -0.176582 1.84809 0
M  V30 30 H -5.14681 -0.0789832 0.371643 0
M  V30 END ATOM
M  V30 BEGIN BOND
M  V30 1 1 1 2
M  V30 2 2 2 3 CFG=2
M  V30 3 1 3 4
M  V30 4 1 4 5
M  V30 5 1 5 6
M  V30 6 1 6 7
M  V30 7 1 7 8
M  V30 8 1 8 9
M  V30 9 1 9 10
M  V30 10 1 10 11
M  V30 11 1 11 12
M  V30 12 1 3 13
M  V30 13 1 11 6
M  V30 14 1 1 14
M  V30 15 1 1 15
M  V30 16 1 5 16
M  V30 17 1 5 17
M  V30 18 1 6 18
M  V30 19 1 7 19
M  V30 20 1 7 20
M  V30 21 1 8 21
M  V30 22 1 8 22
M  V30 23 1 9 23
M  V30 24 1 9 24
M  V30 25 1 10 25
M  V30 26 1 10 26
M  V30 27 1 11 27
M  V30 28 1 12 28
M  V30 29 1 13 29
M  V30 30 1 13 30
M  V30 END BOND
M  V30 END CTAB
M  END
