
     RDKit          3D

  0  0  0  0  0  0  0  0  0  0999 V3000
M  V30 BEGIN CTAB
M  V30 COUNTS 45 45 0 0 0
M  V30 BEGIN ATOM
M  V30 1 C -2.27242 1.73123 -1.43683 0 CFG=1
M  V30 2 N -2.01872 1.28 -2.76935 0
M  V30 3 C -3.37331 0.88185 -0.75306 0
M  V30 4 C -2.94736 -0.545937 -0.690241 0
M  V30 5 C -3.9916 -1.42322 -0.0935513 0
M  V30 6 C -4.42951 -1.15577 1.29412 0
M  V30 7 N -5.04817 0.0971249 1.56272 0
M  V30 8 C -1.04664 1.65179 -0.610692 0
M  V30 9 O -1.01699 1.99228 0.599417 0
M  V30 10 N 0.141994 1.17832 -1.188 0
M  V30 11 C 1.40526 1.06917 -0.432356 0 CFG=1
M  V30 12 C 1.74852 -0.375828 -0.375708 0
M  V30 13 C 2.98621 -0.73102 0.336679 0
M  V30 14 C 4.18579 -0.866284 -0.344227 0
M  V30 15 C 5.32394 -1.19798 0.346223 0
M  V30 16 C 5.32466 -1.40651 1.71545 0
M  V30 17 O 6.50447 -1.73694 2.34293 0
M  V30 18 C 4.12464 -1.26922 2.38343 0
M  V30 19 C 2.98128 -0.939792 1.71493 0
M  V30 20 C 2.41112 1.97189 -0.972783 0
M  V30 21 O 3.65453 2.10022 -0.400947 0
M  V30 22 O 2.16882 2.67433 -1.99336 0
M  V30 23 H -2.65894 2.77242 -1.39846 0
M  V30 24 H -2.04513 2.10411 -3.42081 0
M  V30 25 H -2.76361 0.628329 -3.07975 0
M  V30 26 H -4.30383 1.07015 -1.3008 0
M  V30 27 H -3.41931 1.35087 0.275102 0
M  V30 28 H -2.7351 -0.941632 -1.73428 0
M  V30 29 H -1.96588 -0.638723 -0.1433 0
M  V30 30 H -3.67404 -2.51191 -0.227102 0
M  V30 31 H -4.91223 -1.38763 -0.769655 0
M  V30 32 H -5.19132 -1.94497 1.58708 0
M  V30 33 H -3.59476 -1.33148 2.03707 0
M  V30 34 H -6.06497 0.0358999 1.33703 0
M  V30 35 H -4.89298 0.467619 2.51099 0
M  V30 36 H 0.172537 0.885611 -2.17731 0
M  V30 37 H 1.16064 1.42928 0.606688 0
M  V30 38 H 1.77554 -0.821378 -1.40347 0
M  V30 39 H 0.909058 -0.940897 0.12757 0
M  V30 40 H 4.18004 -0.701185 -1.42217 0
M  V30 41 H 6.25185 -1.29436 -0.234483 0
M  V30 42 H 6.6156 -1.907 3.31511 0
M  V30 43 H 4.09152 -1.42682 3.46289 0
M  V30 44 H 2.0197 -0.827382 2.23402 0
M  V30 45 H 4.22909 2.92707 -0.416748 0
M  V30 END ATOM
M  V30 BEGIN BOND
M  V30 1 1 1 2
M  V30 2 1 1 3
M  V30 3 1 3 4
M  V30 4 1 4 5
M  V30 5 1 5 6
M  V30 6 1 6 7
M  V30 7 1 1 8
M  V30 8 2 8 9
M  V30 9 1 8 10
M  V30 10 1 10 11
M  V30 11 1 11 12
M  V30 12 1 12 13
M  V30 13 2 13 14
M  V30 14 1 14 15
M  V30 15 2 15 16
M  V30 16 1 16 17
M  V30 17 1 16 18
M  V30 18 2 18 19
M  V30 19 1 11 20
M  V30 20 1 20 21
M  V30 21 2 20 22
M  V30 22 1 19 13
M  V30 23 1 1 23 CFG=3
M  V30 24 1 2 24
M  V30 25 1 2 25
M  V30 26 1 3 26
M  V30 27 1 3 27
M  V30 28 1 4 28
M  V30 29 1 4 29
M  V30 30 1 5 30
M  V30 31 1 5 31
M  V30 32 1 6 32
M  V30 33 1 6 33
M  V30 34 1 7 34
M  V30 35 1 7 35
M  V30 36 1 10 36
M  V30 37 1 11 37 CFG=1
M  V30 38 1 12 38
M  V30 39 1 12 39
M  V30 40 1 14 40
M  V30 41 1 15 41
M  V30 42 1 17 42
M  V30 43 1 18 43
M  V30 44 1 19 44
M  V30 45 1 21 45
M  V30 END BOND
M  V30 END CTAB
M  END
