
     RDKit          3D

  0  0  0  0  0  0  0  0  0  0999 V3000
M  V30 BEGIN CTAB
M  V30 COUNTS 22 22 0 0 0
M  V30 BEGIN ATOM
M  V30 1 C 3.38797 -0.329206 -0.0350033 0
M  V30 2 C 1.91486 -0.20064 0.0730055 0
M  V30 3 C 1.31552 1.01847 0.313904 0
M  V30 4 C -0.0765022 1.12891 0.4141 0
M  V30 5 N -0.700975 2.37887 0.661688 0
M  V30 6 C -0.848916 -0.00384097 0.26815 0
M  V30 7 C -0.26979 -1.24574 0.024589 0
M  V30 8 C 1.1241 -1.31512 -0.0687884 0
M  V30 9 F 1.74142 -2.49739 -0.304521 0
M  V30 10 S -2.57378 0.123866 0.390749 0
M  V30 11 O -3.08661 1.03773 -0.695565 0
M  V30 12 O -2.93126 0.653123 1.7633 0
M  V30 13 N -3.30752 -1.40995 0.174875 0
M  V30 14 H 3.84885 0.675023 -0.255334 0
M  V30 15 H 3.69824 -1.08007 -0.776088 0
M  V30 16 H 3.84024 -0.636258 0.93649 0
M  V30 17 H 1.92299 1.90121 0.427319 0
M  V30 18 H -1.48337 2.73144 0.10254 0
M  V30 19 H -0.343533 2.97445 1.45919 0
M  V30 20 H -0.856019 -2.14668 -0.0931375 0
M  V30 21 H -3.53595 -1.5649 -0.852452 0
M  V30 22 H -2.77998 -2.1933 0.589301 0
M  V30 END ATOM
M  V30 BEGIN BOND
M  V30 1 1 1 2
M  V30 2 2 2 3
M  V30 3 1 3 4
M  V30 4 1 4 5
M  V30 5 2 4 6
M  V30 6 1 6 7
M  V30 7 2 7 8
M  V30 8 1 8 9
M  V30 9 1 6 10
M  V30 10 2 10 11
M  V30 11 2 10 12
M  V30 12 1 10 13
M  V30 13 1 8 2
M  V30 14 1 1 14
M  V30 15 1 1 15
M  V30 16 1 1 16
M  V30 17 1 3 17
M  V30 18 1 5 18
M  V30 19 1 5 19
M  V30 20 1 7 20
M  V30 21 1 13 21
M  V30 22 1 13 22
M  V30 END BOND
M  V30 END CTAB
M  END
