
     RDKit          3D

  0  0  0  0  0  0  0  0  0  0999 V3000
M  V30 BEGIN CTAB
M  V30 COUNTS 56 59 0 0 0
M  V30 BEGIN ATOM
M  V30 1 N -3.26145 -4.60991 -1.11346 0
M  V30 2 C -2.27906 -3.61316 -0.765789 0
M  V30 3 N -2.63532 -2.37352 -0.409341 0
M  V30 4 C -1.72318 -1.42591 -0.0825225 0
M  V30 5 C -2.11463 -0.0840934 0.318519 0
M  V30 6 O -3.44126 0.23226 0.334204 0
M  V30 7 C -4.13327 0.215017 -0.84153 0
M  V30 8 C -5.56421 0.62216 -0.544638 0
M  V30 9 C -6.51896 0.699939 -1.52507 0
M  V30 10 Cl -5.99968 0.302778 -3.17118 0
M  V30 11 C -7.81692 1.07081 -1.24901 0
M  V30 12 C -8.20302 1.38014 0.0370589 0
M  V30 13 C -7.25159 1.30747 1.03677 0
M  V30 14 Cl -7.70629 1.69842 2.67506 0
M  V30 15 C -5.94193 0.930689 0.745974 0
M  V30 16 C -0.366706 -1.72438 -0.109659 0
M  V30 17 C -0.0169299 -3.00533 -0.478875 0
M  V30 18 N 1.36944 -3.31972 -0.512506 0
M  V30 19 N -0.96726 -3.90497 -0.793094 0
M  V30 20 C 0.600986 -0.699265 0.244284 0
M  V30 21 C 0.881082 -0.364622 1.55322 0
M  V30 22 C 1.79568 0.595853 1.90537 0
M  V30 23 C 2.50576 1.29871 0.923594 0
M  V30 24 N 3.41881 2.30443 1.29577 0
M  V30 25 C 4.489 2.84986 0.506832 0
M  V30 26 C 5.61323 1.93429 0.340774 0
M  V30 27 C 6.54607 1.86264 1.38479 0
M  V30 28 C 7.63388 1.01815 1.28724 0
M  V30 29 C 7.81922 0.228392 0.153009 0
M  V30 30 Cl 9.23463 -0.83461 0.08743 0
M  V30 31 C 6.9113 0.304445 -0.852244 0
M  V30 32 C 5.80533 1.16527 -0.748156 0
M  V30 33 C 2.23294 0.971488 -0.382949 0
M  V30 34 C 1.29762 -0.0101697 -0.725964 0
M  V30 35 H -3.26968 -5.0886 -2.04383 0
M  V30 36 H -4.01382 -4.8985 -0.443629 0
M  V30 37 H -1.58928 0.68849 -0.288381 0
M  V30 38 H -1.67277 0.0638729 1.36123 0
M  V30 39 H -4.19574 -0.734666 -1.37452 0
M  V30 40 H -3.7219 1.02858 -1.50792 0
M  V30 41 H -8.55628 1.1286 -2.02623 0
M  V30 42 H -9.20515 1.67738 0.318334 0
M  V30 43 H -5.19021 0.869946 1.51904 0
M  V30 44 H 1.94825 -3.04909 -1.35448 0
M  V30 45 H 1.83933 -3.81369 0.274624 0
M  V30 46 H 0.340874 -0.897568 2.32006 0
M  V30 47 H 2.02436 0.870579 2.93 0
M  V30 48 H 3.30558 2.709 2.27468 0
M  V30 49 H 4.85358 3.8234 0.931879 0
M  V30 50 H 4.048 3.07056 -0.509242 0
M  V30 51 H 6.4443 2.45247 2.27314 0
M  V30 52 H 8.35805 0.944322 2.06847 0
M  V30 53 H 7.05157 -0.306469 -1.73202 0
M  V30 54 H 5.12211 1.17859 -1.58036 0
M  V30 55 H 2.76103 1.50483 -1.18347 0
M  V30 56 H 1.10452 -0.245597 -1.77124 0
M  V30 END ATOM
M  V30 BEGIN BOND
M  V30 1 1 1 2
M  V30 2 2 2 3
M  V30 3 1 3 4
M  V30 4 1 4 5
M  V30 5 1 5 6
M  V30 6 1 6 7
M  V30 7 1 7 8
M  V30 8 2 8 9
M  V30 9 1 9 10
M  V30 10 1 9 11
M  V30 11 2 11 12
M  V30 12 1 12 13
M  V30 13 1 13 14
M  V30 14 2 13 15
M  V30 15 2 4 16
M  V30 16 1 16 17
M  V30 17 1 17 18
M  V30 18 2 17 19
M  V30 19 1 16 20
M  V30 20 2 20 21
M  V30 21 1 21 22
M  V30 22 2 22 23
M  V30 23 1 23 24
M  V30 24 1 24 25
M  V30 25 1 25 26
M  V30 26 2 26 27
M  V30 27 1 27 28
M  V30 28 2 28 29
M  V30 29 1 29 30
M  V30 30 1 29 31
M  V30 31 2 31 32
M  V30 32 1 23 33
M  V30 33 2 33 34
M  V30 34 1 19 2
M  V30 35 1 34 20
M  V30 36 1 15 8
M  V30 37 1 32 26
M  V30 38 1 1 35
M  V30 39 1 1 36
M  V30 40 1 5 37
M  V30 41 1 5 38
M  V30 42 1 7 39
M  V30 43 1 7 40
M  V30 44 1 11 41
M  V30 45 1 12 42
M  V30 46 1 15 43
M  V30 47 1 18 44
M  V30 48 1 18 45
M  V30 49 1 21 46
M  V30 50 1 22 47
M  V30 51 1 24 48
M  V30 52 1 25 49
M  V30 53 1 25 50
M  V30 54 1 27 51
M  V30 55 1 28 52
M  V30 56 1 31 53
M  V30 57 1 32 54
M  V30 58 1 33 55
M  V30 59 1 34 56
M  V30 END BOND
M  V30 END CTAB
M  END
