
     RDKit          3D

  0  0  0  0  0  0  0  0  0  0999 V3000
M  V30 BEGIN CTAB
M  V30 COUNTS 59 61 0 0 0
M  V30 BEGIN ATOM
M  V30 1 O 7.33366 -2.1077 -0.722723 0
M  V30 2 C 7.38114 -0.841025 -0.422499 0
M  V30 3 O 7.72875 0.00139227 -1.27721 0
M  V30 4 C 7.02525 -0.37539 0.933599 0 CFG=1
M  V30 5 C 5.91839 0.642958 0.914224 0
M  V30 6 C 4.64582 0.123459 0.307129 0
M  V30 7 C 3.63209 1.19739 0.339014 0
M  V30 8 O 3.92959 2.31187 0.827586 0
M  V30 9 N 2.35545 0.94237 -0.180602 0
M  V30 10 C 1.29083 1.95642 -0.18573 0
M  V30 11 C 0.273526 1.477 -1.19837 0
M  V30 12 C -0.427545 0.240305 -0.61528 0
M  V30 13 C 0.62596 -0.789672 -0.242608 0
M  V30 14 C 2.00302 -0.344386 -0.748724 0
M  V30 15 O -1.17381 -0.296204 -1.63884 0
M  V30 16 C -2.53403 -0.0641169 -1.52694 0
M  V30 17 C -3.08216 -0.714693 -0.285855 0 CFG=1
M  V30 18 C -2.40964 -0.108253 0.903741 0 CFG=1
M  V30 19 C -1.18513 0.692858 0.571825 0
M  V30 20 C -3.36235 0.839352 1.64533 0
M  V30 21 O -2.09381 -1.11674 1.82117 0
M  V30 22 N -4.51774 -0.644718 -0.240312 0
M  V30 23 C -5.19826 0.294127 -0.912437 0
M  V30 24 C -6.5886 0.363818 -0.869671 0
M  V30 25 C -7.25871 -0.559206 -0.116275 0
M  V30 26 N -6.55274 -1.47839 0.539034 0
M  V30 27 C -5.21658 -1.53245 0.488044 0
M  V30 28 O -4.59543 -2.43692 1.13798 0
M  V30 29 N -8.68601 -0.512432 -0.0536556 0
M  V30 30 N 6.64932 -1.49868 1.78363 0
M  V30 31 H 7.2999 -2.76284 -1.2778 0
M  V30 32 H 7.90084 0.110482 1.42014 0
M  V30 33 H 6.23103 1.54653 0.372901 0
M  V30 34 H 5.68054 0.894308 1.982 0
M  V30 35 H 4.80248 -0.273059 -0.715531 0
M  V30 36 H 4.24719 -0.69818 0.972024 0
M  V30 37 H 1.69508 2.95045 -0.447354 0
M  V30 38 H 0.877368 1.96269 0.8429 0
M  V30 39 H -0.480858 2.28638 -1.29231 0
M  V30 40 H 0.755471 1.21969 -2.14021 0
M  V30 41 H 0.67304 -0.952779 0.84988 0
M  V30 42 H 0.429656 -1.76906 -0.725058 0
M  V30 43 H 2.02362 -0.348538 -1.84728 0
M  V30 44 H 2.71686 -1.09001 -0.316426 0
M  V30 45 H -2.67881 1.03695 -1.51793 0
M  V30 46 H -3.01431 -0.559264 -2.39671 0
M  V30 47 H -2.79922 -1.78749 -0.333676 0
M  V30 48 H -0.50094 0.597593 1.4666 0
M  V30 49 H -1.42622 1.78035 0.517255 0
M  V30 50 H -4.14809 0.280422 2.15172 0
M  V30 51 H -3.74196 1.59477 0.933569 0
M  V30 52 H -2.70534 1.36405 2.39436 0
M  V30 53 H -1.73978 -0.667024 2.62726 0
M  V30 54 H -4.71506 1.04105 -1.51818 0
M  V30 55 H -7.11347 1.12533 -1.41671 0
M  V30 56 H -9.15993 -0.505198 0.862057 0
M  V30 57 H -9.26306 -0.485331 -0.913033 0
M  V30 58 H 5.81757 -1.21804 2.33863 0
M  V30 59 H 6.42617 -2.33656 1.19904 0
M  V30 END ATOM
M  V30 BEGIN BOND
M  V30 1 1 1 2
M  V30 2 2 2 3
M  V30 3 1 2 4
M  V30 4 1 4 5
M  V30 5 1 5 6
M  V30 6 1 6 7
M  V30 7 2 7 8
M  V30 8 1 7 9
M  V30 9 1 9 10
M  V30 10 1 10 11
M  V30 11 1 11 12
M  V30 12 1 12 13
M  V30 13 1 13 14
M  V30 14 1 12 15
M  V30 15 1 15 16
M  V30 16 1 16 17
M  V30 17 1 17 18
M  V30 18 1 18 19
M  V30 19 1 18 20
M  V30 20 1 18 21 CFG=1
M  V30 21 1 17 22
M  V30 22 1 22 23
M  V30 23 2 23 24
M  V30 24 1 24 25
M  V30 25 2 25 26
M  V30 26 1 26 27
M  V30 27 2 27 28
M  V30 28 1 25 29
M  V30 29 1 4 30
M  V30 30 1 14 9
M  V30 31 1 27 22
M  V30 32 1 19 12
M  V30 33 1 1 31
M  V30 34 1 4 32 CFG=1
M  V30 35 1 5 33
M  V30 36 1 5 34
M  V30 37 1 6 35
M  V30 38 1 6 36
M  V30 39 1 10 37
M  V30 40 1 10 38
M  V30 41 1 11 39
M  V30 42 1 11 40
M  V30 43 1 13 41
M  V30 44 1 13 42
M  V30 45 1 14 43
M  V30 46 1 14 44
M  V30 47 1 16 45
M  V30 48 1 16 46
M  V30 49 1 17 47 CFG=3
M  V30 50 1 19 48
M  V30 51 1 19 49
M  V30 52 1 20 50
M  V30 53 1 20 51
M  V30 54 1 20 52
M  V30 55 1 21 53
M  V30 56 1 23 54
M  V30 57 1 24 55
M  V30 58 1 29 56
M  V30 59 1 29 57
M  V30 60 1 30 58
M  V30 61 1 30 59
M  V30 END BOND
M  V30 END CTAB
M  END
