
     RDKit          3D

  0  0  0  0  0  0  0  0  0  0999 V3000
M  V30 BEGIN CTAB
M  V30 COUNTS 35 36 0 0 0
M  V30 BEGIN ATOM
M  V30 1 O -0.999105 0.178688 -2.67023 0
M  V30 2 C -0.695175 0.179374 -1.45651 0
M  V30 3 C 0.566541 0.851985 -0.894665 0
M  V30 4 O 1.53492 0.679688 -1.95282 0
M  V30 5 N 2.83107 0.860019 -1.69231 0
M  V30 6 C 3.61946 0.274878 -0.869998 0
M  V30 7 C 5.0413 0.749776 -0.893136 0
M  V30 8 N 5.58814 1.63792 -1.6508 0
M  V30 9 O 6.65454 1.97095 -1.63517 0
M  V30 10 N 7.1861 1.11664 -0.459423 0
M  V30 11 C 6.09377 0.405017 -0.108751 0
M  V30 12 N 6.09638 -0.694408 0.829571 0
M  V30 13 N 3.2237 -0.745557 -0.00603163 0
M  V30 14 N -1.44834 -0.449805 -0.513499 0
M  V30 15 C -2.20476 -1.07973 0.414665 0
M  V30 16 C -3.56909 -0.519272 0.569043 0
M  V30 17 C -4.01488 0.624452 -0.0923912 0
M  V30 18 C -5.37812 1.06262 0.0724248 0
M  V30 19 C -6.23654 0.382776 0.873559 0
M  V30 20 C -5.78329 -0.770032 1.53761 0
M  V30 21 C -4.5312 -1.16349 1.36481 0
M  V30 22 H 0.208219 1.93876 -0.967659 0
M  V30 23 H 0.832347 0.436151 0.025613 0
M  V30 24 H 5.48283 -1.55 0.57128 0
M  V30 25 H 6.67559 -0.621192 1.67573 0
M  V30 26 H 2.95914 -0.375986 0.992542 0
M  V30 27 H 3.17282 -1.76264 -0.130842 0
M  V30 28 H -2.11121 -1.16152 -1.55307 0
M  V30 29 H -2.15572 -2.16174 0.543692 0
M  V30 30 H -1.73852 -0.719735 1.52263 0
M  V30 31 H -3.32718 1.12096 -0.697251 0
M  V30 32 H -5.62916 1.93314 -0.470933 0
M  V30 33 H -7.26034 0.644826 1.00947 0
M  V30 34 H -6.52457 -1.21696 2.17167 0
M  V30 35 H -4.15963 -2.05657 1.91608 0
M  V30 END ATOM
M  V30 BEGIN BOND
M  V30 1 2 1 2
M  V30 2 1 2 3
M  V30 3 1 3 4
M  V30 4 1 4 5
M  V30 5 2 5 6
M  V30 6 1 6 7
M  V30 7 2 7 8
M  V30 8 1 8 9
M  V30 9 1 9 10
M  V30 10 2 10 11
M  V30 11 1 11 12
M  V30 12 1 6 13
M  V30 13 1 2 14
M  V30 14 1 14 15
M  V30 15 1 15 16
M  V30 16 2 16 17
M  V30 17 1 17 18
M  V30 18 2 18 19
M  V30 19 1 19 20
M  V30 20 2 20 21
M  V30 21 1 11 7
M  V30 22 1 21 16
M  V30 23 1 3 22
M  V30 24 1 3 23
M  V30 25 1 12 24
M  V30 26 1 12 25
M  V30 27 1 13 26
M  V30 28 1 13 27
M  V30 29 1 14 28
M  V30 30 1 15 29
M  V30 31 1 15 30
M  V30 32 1 17 31
M  V30 33 1 18 32
M  V30 34 1 19 33
M  V30 35 1 20 34
M  V30 36 1 21 35
M  V30 END BOND
M  V30 END CTAB
M  END
