
     RDKit          3D

  0  0  0  0  0  0  0  0  0  0999 V3000
M  V30 BEGIN CTAB
M  V30 COUNTS 24 24 0 0 0
M  V30 BEGIN ATOM
M  V30 1 C -2.5107 -1.78712 -0.637061 0
M  V30 2 N -1.83842 -0.615494 -0.144253 0
M  V30 3 C -0.430532 -0.512793 -0.0658154 0
M  V30 4 C 0.303168 -1.62667 -0.499048 0
M  V30 5 C 1.67465 -1.52122 -0.420522 0
M  V30 6 C 2.34218 -0.416514 0.0454687 0
M  V30 7 C 1.59226 0.651044 0.459467 0
M  V30 8 C 0.216736 0.608478 0.40637 0
M  V30 9 S -0.696586 1.98834 0.942864 0
M  V30 10 O 0.199381 3.09697 1.41253 0
M  V30 11 O -1.58641 1.64284 2.1219 0
M  V30 12 N -1.68224 2.63529 -0.321607 0
M  V30 13 N 3.75842 -0.361618 0.104624 0
M  V30 14 H -3.57607 -1.78978 -0.366113 0
M  V30 15 H -2.38771 -1.90138 -1.73164 0
M  V30 16 H -2.08593 -2.72759 -0.178732 0
M  V30 17 H -2.42096 0.180189 0.163225 0
M  V30 18 H -0.18007 -2.51872 -0.873911 0
M  V30 19 H 2.2488 -2.38351 -0.755738 0
M  V30 20 H 2.11972 1.53759 0.833219 0
M  V30 21 H -2.45873 3.16392 0.138833 0
M  V30 22 H -1.13743 3.34711 -0.86727 0
M  V30 23 H 4.2267 -0.0856787 0.973756 0
M  V30 24 H 4.30977 -0.603683 -0.740547 0
M  V30 END ATOM
M  V30 BEGIN BOND
M  V30 1 1 1 2
M  V30 2 1 2 3
M  V30 3 2 3 4
M  V30 4 1 4 5
M  V30 5 2 5 6
M  V30 6 1 6 7
M  V30 7 2 7 8
M  V30 8 1 8 9
M  V30 9 2 9 10
M  V30 10 2 9 11
M  V30 11 1 9 12
M  V30 12 1 6 13
M  V30 13 1 8 3
M  V30 14 1 1 14
M  V30 15 1 1 15
M  V30 16 1 1 16
M  V30 17 1 2 17
M  V30 18 1 4 18
M  V30 19 1 5 19
M  V30 20 1 7 20
M  V30 21 1 12 21
M  V30 22 1 12 22
M  V30 23 1 13 23
M  V30 24 1 13 24
M  V30 END BOND
M  V30 END CTAB
M  END
