
     RDKit          3D

  0  0  0  0  0  0  0  0  0  0999 V3000
M  V30 BEGIN CTAB
M  V30 COUNTS 40 42 0 0 0
M  V30 BEGIN ATOM
M  V30 1 N -4.77623 -2.20172 0.314065 0
M  V30 2 C -3.53056 -1.55931 0.0204899 0
M  V30 3 C -2.58981 -1.4941 1.00955 0
M  V30 4 C -1.37659 -0.875463 0.744793 0
M  V30 5 C -1.07661 -0.3208 -0.477753 0
M  V30 6 C -2.07064 -0.414623 -1.45121 0
M  V30 7 C -3.2858 -1.02307 -1.21845 0
M  V30 8 C 0.224197 0.355298 -0.783005 0
M  V30 9 O 0.393705 0.187369 -2.1803 0
M  V30 10 C 0.104552 1.77702 -0.461565 0
M  V30 11 C 0.401243 2.70862 -1.43079 0
M  V30 12 C 0.315311 4.06919 -1.23701 0
M  V30 13 C -0.0949687 4.47508 0.0127947 0
M  V30 14 C -0.397038 3.56623 0.997649 0
M  V30 15 C -0.299541 2.22097 0.767282 0
M  V30 16 C 1.32944 -0.364342 -0.157461 0
M  V30 17 C 2.20277 0.12209 0.772585 0
M  V30 18 C 3.23456 -0.650252 1.31772 0
M  V30 19 C 3.40465 -1.95191 0.924786 0
M  V30 20 N 4.45757 -2.73819 1.4815 0
M  V30 21 C 2.533 -2.45635 -0.0112763 0
M  V30 22 C 1.51727 -1.69104 -0.545792 0
M  V30 23 H -4.84362 -3.17222 0.686691 0
M  V30 24 H -5.63299 -1.62077 0.126174 0
M  V30 25 H -2.76521 -1.9121 1.99534 0
M  V30 26 H -0.626761 -0.821903 1.51903 0
M  V30 27 H -1.83782 0.0205043 -2.41326 0
M  V30 28 H -4.03257 -1.07703 -1.99811 0
M  V30 29 H 0.0768089 -0.672438 -2.49942 0
M  V30 30 H 0.731288 2.40277 -2.43653 0
M  V30 31 H 0.558627 4.7876 -2.02979 0
M  V30 32 H -0.180428 5.55499 0.219715 0
M  V30 33 H -0.71085 3.98692 1.94763 0
M  V30 34 H -0.547439 1.56067 1.57126 0
M  V30 35 H 2.09549 1.12657 1.09376 0
M  V30 36 H 3.91287 -0.22056 2.0617 0
M  V30 37 H 5.24225 -2.30876 2.00756 0
M  V30 38 H 4.44701 -3.76961 1.36183 0
M  V30 39 H 2.65443 -3.48105 -0.331247 0
M  V30 40 H 0.838445 -2.12426 -1.29092 0
M  V30 END ATOM
M  V30 BEGIN BOND
M  V30 1 1 1 2
M  V30 2 2 2 3
M  V30 3 1 3 4
M  V30 4 2 4 5
M  V30 5 1 5 6
M  V30 6 2 6 7
M  V30 7 1 5 8
M  V30 8 1 8 9
M  V30 9 1 8 10
M  V30 10 2 10 11
M  V30 11 1 11 12
M  V30 12 2 12 13
M  V30 13 1 13 14
M  V30 14 2 14 15
M  V30 15 1 8 16
M  V30 16 2 16 17
M  V30 17 1 17 18
M  V30 18 2 18 19
M  V30 19 1 19 20
M  V30 20 1 19 21
M  V30 21 2 21 22
M  V30 22 1 7 2
M  V30 23 1 15 10
M  V30 24 1 22 16
M  V30 25 1 1 23
M  V30 26 1 1 24
M  V30 27 1 3 25
M  V30 28 1 4 26
M  V30 29 1 6 27
M  V30 30 1 7 28
M  V30 31 1 9 29
M  V30 32 1 11 30
M  V30 33 1 12 31
M  V30 34 1 13 32
M  V30 35 1 14 33
M  V30 36 1 15 34
M  V30 37 1 17 35
M  V30 38 1 18 36
M  V30 39 1 20 37
M  V30 40 1 20 38
M  V30 41 1 21 39
M  V30 42 1 22 40
M  V30 END BOND
M  V30 END CTAB
M  END
