
     RDKit          3D

  0  0  0  0  0  0  0  0  0  0999 V3000
M  V30 BEGIN CTAB
M  V30 COUNTS 47 50 0 0 0
M  V30 BEGIN ATOM
M  V30 1 N -7.25044 -0.00495892 0.626817 0
M  V30 2 C -6.01562 0.0597914 1.27256 0 CFG=2
M  V30 3 C -5.06502 1.12975 0.757265 0
M  V30 4 C -3.93338 0.1258 1.00338 0 CFG=1
M  V30 5 C -4.9874 -0.968284 0.806249 0
M  V30 6 C -2.88213 0.148999 -0.0248754 0
M  V30 7 C -1.54825 0.221826 0.306615 0
M  V30 8 C -0.573069 0.242727 -0.674804 0
M  V30 9 N -0.984734 0.189557 -1.9379 0
M  V30 10 C -2.26978 0.118146 -2.30382 0
M  V30 11 N -3.19707 0.099396 -1.32882 0
M  V30 12 N -2.58176 0.0666389 -3.68406 0
M  V30 13 N 0.809478 0.317207 -0.375973 0
M  V30 14 C 1.21007 0.371286 0.986769 0
M  V30 15 C 2.65457 0.337194 1.27753 0
M  V30 16 N 3.51008 -0.0767634 0.199008 0
M  V30 17 C 3.07348 -0.272124 -1.15741 0
M  V30 18 C 1.74438 0.335593 -1.46934 0
M  V30 19 C 4.88139 -0.306147 0.498342 0
M  V30 20 C 5.40811 -0.10287 1.77126 0
M  V30 21 C 6.73354 -0.33177 2.03968 0
M  V30 22 N 7.55097 -0.763983 1.05156 0
M  V30 23 C 7.11461 -0.97907 -0.188101 0
M  V30 24 C 5.77176 -0.745555 -0.453591 0
M  V30 25 H -7.32258 -0.240086 -0.303575 0
M  V30 26 H -7.96528 0.509245 1.05024 0
M  V30 27 H -6.06269 0.0530732 2.39159 0
M  V30 28 H -5.01614 2.04002 1.35104 0
M  V30 29 H -5.25416 1.33108 -0.307599 0
M  V30 30 H -3.60955 0.168831 2.04189 0
M  V30 31 H -5.12926 -1.23593 -0.265083 0
M  V30 32 H -4.82167 -1.80037 1.49697 0
M  V30 33 H -1.21205 0.265246 1.33848 0
M  V30 34 H -3.38769 0.623472 -4.029 0
M  V30 35 H -2.03086 -0.50517 -4.34073 0
M  V30 36 H 0.73321 -0.516562 1.49954 0
M  V30 37 H 0.687035 1.24934 1.46985 0
M  V30 38 H 2.87687 -0.330231 2.16193 0
M  V30 39 H 2.98674 1.35299 1.59365 0
M  V30 40 H 3.16021 -1.33059 -1.43733 0
M  V30 41 H 3.82255 0.271289 -1.80568 0
M  V30 42 H 1.85869 1.3757 -1.84283 0
M  V30 43 H 1.29573 -0.296027 -2.2914 0
M  V30 44 H 4.78472 0.239509 2.57255 0
M  V30 45 H 7.1872 -0.188066 3.012 0
M  V30 46 H 7.81488 -1.32425 -0.935447 0
M  V30 47 H 5.43032 -0.924885 -1.46438 0
M  V30 END ATOM
M  V30 BEGIN BOND
M  V30 1 1 1 2
M  V30 2 1 2 3
M  V30 3 1 3 4
M  V30 4 1 4 5
M  V30 5 1 4 6
M  V30 6 2 6 7
M  V30 7 1 7 8
M  V30 8 2 8 9
M  V30 9 1 9 10
M  V30 10 2 10 11
M  V30 11 1 10 12
M  V30 12 1 8 13
M  V30 13 1 13 14
M  V30 14 1 14 15
M  V30 15 1 15 16
M  V30 16 1 16 17
M  V30 17 1 17 18
M  V30 18 1 16 19
M  V30 19 2 19 20
M  V30 20 1 20 21
M  V30 21 2 21 22
M  V30 22 1 22 23
M  V30 23 2 23 24
M  V30 24 1 5 2
M  V30 25 1 11 6
M  V30 26 1 18 13
M  V30 27 1 24 19
M  V30 28 1 1 25
M  V30 29 1 1 26
M  V30 30 1 2 27 CFG=1
M  V30 31 1 3 28
M  V30 32 1 3 29
M  V30 33 1 4 30 CFG=1
M  V30 34 1 5 31
M  V30 35 1 5 32
M  V30 36 1 7 33
M  V30 37 1 12 34
M  V30 38 1 12 35
M  V30 39 1 14 36
M  V30 40 1 14 37
M  V30 41 1 15 38
M  V30 42 1 15 39
M  V30 43 1 17 40
M  V30 44 1 17 41
M  V30 45 1 18 42
M  V30 46 1 18 43
M  V30 47 1 20 44
M  V30 48 1 21 45
M  V30 49 1 23 46
M  V30 50 1 24 47
M  V30 END BOND
M  V30 END CTAB
M  END
