
     RDKit          3D

  0  0  0  0  0  0  0  0  0  0999 V3000
M  V30 BEGIN CTAB
M  V30 COUNTS 19 19 0 0 0
M  V30 BEGIN ATOM
M  V30 1 N -2.97186 0.314097 -0.948102 0
M  V30 2 C -2.37199 -0.443975 0.156689 0
M  V30 3 C -0.885265 -0.251259 0.150936 0
M  V30 4 C -0.286239 0.773811 0.851757 0
M  V30 5 C 1.0759 0.966014 0.858081 0
M  V30 6 F 1.61969 1.99732 1.56908 0
M  V30 7 C 1.92332 0.129589 0.152509 0
M  V30 8 N 3.32519 0.311391 0.147169 0
M  V30 9 C 1.31538 -0.904387 -0.554023 0
M  V30 10 I 2.5899 -2.18532 -1.63215 0
M  V30 11 C -0.047702 -1.0891 -0.554695 0
M  V30 12 H -2.28654 1.0545 -1.23312 0
M  V30 13 H -3.87675 0.729241 -0.606348 0
M  V30 14 H -2.52143 -1.53932 -0.0472191 0
M  V30 15 H -2.81865 -0.133739 1.11684 0
M  V30 16 H -0.965838 1.42811 1.40536 0
M  V30 17 H 3.88319 -0.013663 -0.654166 0
M  V30 18 H 3.79201 0.76793 0.941739 0
M  V30 19 H -0.492308 -1.91123 -1.12034 0
M  V30 END ATOM
M  V30 BEGIN BOND
M  V30 1 1 1 2
M  V30 2 1 2 3
M  V30 3 2 3 4
M  V30 4 1 4 5
M  V30 5 1 5 6
M  V30 6 2 5 7
M  V30 7 1 7 8
M  V30 8 1 7 9
M  V30 9 1 9 10
M  V30 10 2 9 11
M  V30 11 1 11 3
M  V30 12 1 1 12
M  V30 13 1 1 13
M  V30 14 1 2 14
M  V30 15 1 2 15
M  V30 16 1 4 16
M  V30 17 1 8 17
M  V30 18 1 8 18
M  V30 19 1 11 19
M  V30 END BOND
M  V30 END CTAB
M  END
