
     RDKit          3D

  0  0  0  0  0  0  0  0  0  0999 V3000
M  V30 BEGIN CTAB
M  V30 COUNTS 36 37 0 0 0
M  V30 BEGIN ATOM
M  V30 1 N -3.23184 2.6377 0.816761 0
M  V30 2 C -2.40855 1.53072 0.323135 0
M  V30 3 C -3.20694 0.322829 0.0633683 0
M  V30 4 C -4.57637 0.275781 0.328688 0
M  V30 5 C -5.33559 -0.838361 0.0734176 0
M  V30 6 C -4.73597 -1.9564 -0.462306 0
M  V30 7 C -3.37436 -1.94905 -0.74138 0
M  V30 8 C -2.65722 -0.806556 -0.466995 0
M  V30 9 C -1.21795 -0.824758 -0.754345 0
M  V30 10 O -0.934585 -1.01855 -1.95468 0
M  V30 11 N -0.318275 -0.625482 0.31159 0
M  V30 12 C 1.08835 -0.555163 0.2076 0
M  V30 13 C 1.8199 -0.229712 1.36285 0
M  V30 14 C 3.19131 -0.0935161 1.36658 0
M  V30 15 C 3.90993 -0.275984 0.203503 0
M  V30 16 C 3.213 -0.593027 -0.924644 0
M  V30 17 C 1.81776 -0.732229 -0.932147 0
M  V30 18 S 5.65392 -0.101317 0.166519 0
M  V30 19 O 6.1258 -0.596234 -1.19148 0
M  V30 20 O 6.35525 -0.881853 1.21867 0
M  V30 21 N 6.02042 1.59417 0.215905 0
M  V30 22 H -3.65723 3.0817 -0.0551154 0
M  V30 23 H -2.50988 3.35722 1.13477 0
M  V30 24 H -1.74256 1.31646 1.2033 0
M  V30 25 H -1.79554 1.77264 -0.53609 0
M  V30 26 H -5.05354 1.16635 0.757295 0
M  V30 27 H -6.41686 -0.8631 0.293454 0
M  V30 28 H -5.28515 -2.86439 -0.680408 0
M  V30 29 H -2.95988 -2.84784 -1.16425 0
M  V30 30 H -0.69545 -0.560488 1.30816 0
M  V30 31 H 1.26419 -0.0802144 2.27398 0
M  V30 32 H 3.72204 0.164442 2.2915 0
M  V30 33 H 3.70309 -0.749297 -1.87352 0
M  V30 34 H 1.31401 -0.991233 -1.8467 0
M  V30 35 H 6.09716 2.03949 -0.718434 0
M  V30 36 H 6.81757 1.77525 0.850087 0
M  V30 END ATOM
M  V30 BEGIN BOND
M  V30 1 1 1 2
M  V30 2 1 2 3
M  V30 3 2 3 4
M  V30 4 1 4 5
M  V30 5 2 5 6
M  V30 6 1 6 7
M  V30 7 2 7 8
M  V30 8 1 8 9
M  V30 9 2 9 10
M  V30 10 1 9 11
M  V30 11 1 11 12
M  V30 12 2 12 13
M  V30 13 1 13 14
M  V30 14 2 14 15
M  V30 15 1 15 16
M  V30 16 2 16 17
M  V30 17 1 15 18
M  V30 18 2 18 19
M  V30 19 2 18 20
M  V30 20 1 18 21
M  V30 21 1 8 3
M  V30 22 1 17 12
M  V30 23 1 1 22
M  V30 24 1 1 23
M  V30 25 1 2 24
M  V30 26 1 2 25
M  V30 27 1 4 26
M  V30 28 1 5 27
M  V30 29 1 6 28
M  V30 30 1 7 29
M  V30 31 1 11 30
M  V30 32 1 13 31
M  V30 33 1 14 32
M  V30 34 1 16 33
M  V30 35 1 17 34
M  V30 36 1 21 35
M  V30 37 1 21 36
M  V30 END BOND
M  V30 END CTAB
M  END
