
     RDKit          3D

  0  0  0  0  0  0  0  0  0  0999 V3000
M  V30 BEGIN CTAB
M  V30 COUNTS 25 25 0 0 0
M  V30 BEGIN ATOM
M  V30 1 N -2.81364 1.38053 0.254824 0
M  V30 2 C -3.41754 0.133542 -0.128961 0
M  V30 3 C -2.58962 -0.553043 -1.21312 0
M  V30 4 C -1.21336 -0.793146 -0.621428 0
M  V30 5 S -0.658046 -2.1641 0.244395 0
M  V30 6 C 0.94027 -1.63921 0.536019 0
M  V30 7 C 0.954251 -0.403463 -0.067412 0
M  V30 8 N -0.160685 -0.0270976 -0.636267 0
M  V30 9 C 2.18013 0.436852 -0.0597485 0
M  V30 10 O 3.20714 0.0146841 0.49975 0
M  V30 11 N 2.15937 1.706 -0.690158 0
M  V30 12 N 3.28913 2.53082 -0.707847 0
M  V30 13 C 2.05669 -2.33071 1.26121 0
M  V30 14 H -2.12896 1.22632 1.04504 0
M  V30 15 H -3.57191 1.99987 0.639293 0
M  V30 16 H -4.42852 0.282473 -0.58162 0
M  V30 17 H -3.56458 -0.534958 0.739135 0
M  V30 18 H -2.44457 0.134758 -2.04209 0
M  V30 19 H -3.00048 -1.52875 -1.45768 0
M  V30 20 H 1.26413 2.0348 -1.1586 0
M  V30 21 H 4.00329 2.11366 -0.0660455 0
M  V30 22 H 3.00487 3.44088 -0.271431 0
M  V30 23 H 2.34579 -1.64104 2.1074 0
M  V30 24 H 1.68851 -3.24628 1.75816 0
M  V30 25 H 2.89832 -2.57339 0.617184 0
M  V30 END ATOM
M  V30 BEGIN BOND
M  V30 1 1 1 2
M  V30 2 1 2 3
M  V30 3 1 3 4
M  V30 4 1 4 5
M  V30 5 1 5 6
M  V30 6 2 6 7
M  V30 7 1 7 8
M  V30 8 1 7 9
M  V30 9 2 9 10
M  V30 10 1 9 11
M  V30 11 1 11 12
M  V30 12 1 6 13
M  V30 13 2 8 4
M  V30 14 1 1 14
M  V30 15 1 1 15
M  V30 16 1 2 16
M  V30 17 1 2 17
M  V30 18 1 3 18
M  V30 19 1 3 19
M  V30 20 1 11 20
M  V30 21 1 12 21
M  V30 22 1 12 22
M  V30 23 1 13 23
M  V30 24 1 13 24
M  V30 25 1 13 25
M  V30 END BOND
M  V30 END CTAB
M  END
