
     RDKit          3D

  0  0  0  0  0  0  0  0  0  0999 V3000
M  V30 BEGIN CTAB
M  V30 COUNTS 44 47 0 0 0
M  V30 BEGIN ATOM
M  V30 1 N -7.55553 -1.05463 0.0579187 0
M  V30 2 C -6.17772 -0.706443 0.267949 0
M  V30 3 C -5.78844 0.0394579 1.3577 0
M  V30 4 C -4.4397 0.338869 1.49737 0
M  V30 5 C -3.52861 -0.0930386 0.582589 0
M  V30 6 C -3.95899 -0.839063 -0.497091 0
M  V30 7 C -5.27364 -1.15176 -0.666418 0
M  V30 8 N -5.70868 -1.91799 -1.77703 0
M  V30 9 C -2.09042 0.183106 0.662938 0
M  V30 10 C -1.573 0.913742 1.69651 0
M  V30 11 C -0.190789 1.14682 1.72233 0
M  V30 12 C 0.649181 0.66291 0.742494 0
M  V30 13 O 2.01463 0.90849 0.792391 0
M  V30 14 C 2.84152 0.404634 -0.215963 0 CFG=1
M  V30 15 C 3.43749 1.58589 -0.973351 0
M  V30 16 N 4.78455 1.2111 -1.33348 0
M  V30 17 C 4.7351 -0.0881523 -1.96874 0
M  V30 18 C 4.52668 -1.1966 -0.94385 0
M  V30 19 C 3.92431 -0.509819 0.285193 0
M  V30 20 C 5.04695 0.279137 0.921202 0
M  V30 21 C 5.58825 1.2141 -0.140257 0
M  V30 22 N 0.0586446 -0.0460725 -0.23837 0
M  V30 23 N -1.24069 -0.270877 -0.271713 0
M  V30 24 H -8.28523 -0.325584 0.131091 0
M  V30 25 H -7.80957 -2.02394 -0.163534 0
M  V30 26 H -6.52391 0.385041 2.09126 0
M  V30 27 H -4.14633 0.914732 2.34047 0
M  V30 28 H -3.24 -1.18797 -1.23184 0
M  V30 29 H -5.60104 -1.55682 -2.743 0
M  V30 30 H -6.13721 -2.84152 -1.65053 0
M  V30 31 H -2.19765 1.31488 2.49086 0
M  V30 32 H 0.219686 1.72695 2.54308 0
M  V30 33 H 2.24835 -0.163248 -0.971616 0
M  V30 34 H 2.84695 1.81699 -1.87616 0
M  V30 35 H 3.48855 2.48753 -0.343132 0
M  V30 36 H 3.80337 -0.0925878 -2.60216 0
M  V30 37 H 5.57928 -0.296876 -2.62685 0
M  V30 38 H 3.90585 -2.01201 -1.31367 0
M  V30 39 H 5.54105 -1.54606 -0.614899 0
M  V30 40 H 3.4773 -1.25337 0.956884 0
M  V30 41 H 5.86146 -0.432578 1.20028 0
M  V30 42 H 4.69138 0.823616 1.8159 0
M  V30 43 H 6.65803 1.00647 -0.360232 0
M  V30 44 H 5.5386 2.24256 0.28227 0
M  V30 END ATOM
M  V30 BEGIN BOND
M  V30 1 1 1 2
M  V30 2 2 2 3
M  V30 3 1 3 4
M  V30 4 2 4 5
M  V30 5 1 5 6
M  V30 6 2 6 7
M  V30 7 1 7 8
M  V30 8 1 5 9
M  V30 9 2 9 10
M  V30 10 1 10 11
M  V30 11 2 11 12
M  V30 12 1 12 13
M  V30 13 1 13 14
M  V30 14 1 14 15
M  V30 15 1 15 16
M  V30 16 1 16 17
M  V30 17 1 17 18
M  V30 18 1 18 19
M  V30 19 1 19 20
M  V30 20 1 20 21
M  V30 21 1 12 22
M  V30 22 2 22 23
M  V30 23 1 7 2
M  V30 24 1 23 9
M  V30 25 1 19 14
M  V30 26 1 21 16
M  V30 27 1 1 24
M  V30 28 1 1 25
M  V30 29 1 3 26
M  V30 30 1 4 27
M  V30 31 1 6 28
M  V30 32 1 8 29
M  V30 33 1 8 30
M  V30 34 1 10 31
M  V30 35 1 11 32
M  V30 36 1 14 33 CFG=3
M  V30 37 1 15 34
M  V30 38 1 15 35
M  V30 39 1 17 36
M  V30 40 1 17 37
M  V30 41 1 18 38
M  V30 42 1 18 39
M  V30 43 1 19 40
M  V30 44 1 20 41
M  V30 45 1 20 42
M  V30 46 1 21 43
M  V30 47 1 21 44
M  V30 END BOND
M  V30 END CTAB
M  END
