
     RDKit          3D

  0  0  0  0  0  0  0  0  0  0999 V3000
M  V30 BEGIN CTAB
M  V30 COUNTS 26 26 0 0 0
M  V30 BEGIN ATOM
M  V30 1 O 4.15301 0.870922 -0.438141 0
M  V30 2 C 3.37701 -0.0971334 -0.106542 0
M  V30 3 C 1.95895 0.436579 -0.0990652 0
M  V30 4 C 0.94613 -0.586942 0.27137 0 CFG=1
M  V30 5 C -0.399232 -0.00920264 0.251304 0
M  V30 6 C -0.58926 1.33953 0.0410405 0
M  V30 7 C -1.86495 1.92268 0.0194524 0
M  V30 8 C -2.95257 1.11092 0.215689 0
M  V30 9 C -2.81411 -0.245175 0.430028 0
M  V30 10 C -1.54528 -0.767337 0.442075 0
M  V30 11 N -3.97586 -1.05605 0.630356 0
M  V30 12 N 1.08926 -1.78506 -0.513115 0
M  V30 13 H 4.04384 1.66015 -0.587432 0
M  V30 14 H 3.50033 -0.908455 -0.860188 0
M  V30 15 H 3.69158 -0.436571 0.907115 0
M  V30 16 H 1.76968 0.878428 -1.0952 0
M  V30 17 H 1.98804 1.29846 0.624908 0
M  V30 18 H 1.14361 -0.859872 1.35425 0
M  V30 19 H 0.260837 1.99128 -0.11799 0
M  V30 20 H -1.96588 2.96918 -0.146297 0
M  V30 21 H -3.96915 1.50459 0.210134 0
M  V30 22 H -1.4188 -1.82613 0.60836 0
M  V30 23 H -4.86679 -0.63901 0.977499 0
M  V30 24 H -3.92087 -2.05767 0.427145 0
M  V30 25 H 0.355431 -2.47748 -0.296237 0
M  V30 26 H 2.00502 -2.23063 -0.228353 0
M  V30 END ATOM
M  V30 BEGIN BOND
M  V30 1 1 1 2
M  V30 2 1 2 3
M  V30 3 1 3 4
M  V30 4 1 4 5
M  V30 5 2 5 6
M  V30 6 1 6 7
M  V30 7 2 7 8
M  V30 8 1 8 9
M  V30 9 2 9 10
M  V30 10 1 9 11
M  V30 11 1 4 12
M  V30 12 1 10 5
M  V30 13 1 1 13
M  V30 14 1 2 14
M  V30 15 1 2 15
M  V30 16 1 3 16
M  V30 17 1 3 17
M  V30 18 1 4 18 CFG=1
M  V30 19 1 6 19
M  V30 20 1 7 20
M  V30 21 1 8 21
M  V30 22 1 10 22
M  V30 23 1 11 23
M  V30 24 1 11 24
M  V30 25 1 12 25
M  V30 26 1 12 26
M  V30 END BOND
M  V30 END CTAB
M  END
