
     RDKit          3D

  0  0  0  0  0  0  0  0  0  0999 V3000
M  V30 BEGIN CTAB
M  V30 COUNTS 48 50 0 0 0
M  V30 BEGIN ATOM
M  V30 1 C -1.97006 -2.83591 -2.03369 0
M  V30 2 O -3.06471 -2.05077 -1.57239 0
M  V30 3 C -2.86303 -0.844276 -0.936046 0
M  V30 4 C -1.57399 -0.39274 -0.744615 0
M  V30 5 C -1.29627 0.801049 -0.11783 0
M  V30 6 C 0.0318362 1.34265 0.125215 0
M  V30 7 N 1.13579 0.464588 -0.0624867 0
M  V30 8 C 1.16269 -0.689919 0.769801 0
M  V30 9 C 2.30885 -0.743155 1.7381 0
M  V30 10 C 3.56493 -0.629586 0.912688 0
M  V30 11 C 3.56265 0.384054 -0.019907 0
M  V30 12 C 2.34733 1.22789 -0.0992994 0
M  V30 13 C 4.67133 0.561402 -0.819828 0
M  V30 14 N 4.67476 1.61443 -1.792 0
M  V30 15 N 5.69881 -0.271161 -0.642644 0
M  V30 16 C 5.69235 -1.26529 0.277006 0
M  V30 17 N 6.83139 -2.10949 0.400855 0
M  V30 18 N 4.60077 -1.43806 1.06288 0
M  V30 19 C -2.38814 1.54057 0.318923 0
M  V30 20 C -3.68377 1.09075 0.128591 0
M  V30 21 O -4.75444 1.86994 0.585707 0
M  V30 22 C -4.50348 3.10024 1.23285 0
M  V30 23 C -3.94541 -0.115505 -0.505308 0
M  V30 24 O -5.25175 -0.506003 -0.663484 0
M  V30 25 C -5.9831 -1.27357 0.249806 0
M  V30 26 H -1.31801 -3.0155 -1.14115 0
M  V30 27 H -2.31316 -3.79915 -2.41512 0
M  V30 28 H -1.40401 -2.21617 -2.72766 0
M  V30 29 H -0.712698 -0.965338 -1.08701 0
M  V30 30 H 0.087749 1.83797 1.14053 0
M  V30 31 H 0.168822 2.21037 -0.585254 0
M  V30 32 H 0.216459 -0.717591 1.38047 0
M  V30 33 H 1.21905 -1.64223 0.165171 0
M  V30 34 H 2.27276 0.0557858 2.49838 0
M  V30 35 H 2.32574 -1.71369 2.23239 0
M  V30 36 H 2.36302 1.87306 0.825679 0
M  V30 37 H 2.33983 1.86926 -1.00292 0
M  V30 38 H 4.73332 2.62352 -1.53306 0
M  V30 39 H 4.61422 1.3048 -2.78852 0
M  V30 40 H 7.21427 -2.52534 -0.475657 0
M  V30 41 H 7.3024 -2.33846 1.28699 0
M  V30 42 H -2.22756 2.49543 0.822505 0
M  V30 43 H -5.43612 3.62256 1.44193 0
M  V30 44 H -3.83162 3.75171 0.602404 0
M  V30 45 H -3.91199 2.8892 2.16504 0
M  V30 46 H -6.94393 -0.741048 0.486849 0
M  V30 47 H -5.47134 -1.4347 1.20763 0
M  V30 48 H -6.29255 -2.25657 -0.181508 0
M  V30 END ATOM
M  V30 BEGIN BOND
M  V30 1 1 1 2
M  V30 2 1 2 3
M  V30 3 2 3 4
M  V30 4 1 4 5
M  V30 5 1 5 6
M  V30 6 1 6 7
M  V30 7 1 7 8
M  V30 8 1 8 9
M  V30 9 1 9 10
M  V30 10 2 10 11
M  V30 11 1 11 12
M  V30 12 1 11 13
M  V30 13 1 13 14
M  V30 14 2 13 15
M  V30 15 1 15 16
M  V30 16 1 16 17
M  V30 17 2 16 18
M  V30 18 2 5 19
M  V30 19 1 19 20
M  V30 20 1 20 21
M  V30 21 1 21 22
M  V30 22 2 20 23
M  V30 23 1 23 24
M  V30 24 1 24 25
M  V30 25 1 23 3
M  V30 26 1 12 7
M  V30 27 1 18 10
M  V30 28 1 1 26
M  V30 29 1 1 27
M  V30 30 1 1 28
M  V30 31 1 4 29
M  V30 32 1 6 30
M  V30 33 1 6 31
M  V30 34 1 8 32
M  V30 35 1 8 33
M  V30 36 1 9 34
M  V30 37 1 9 35
M  V30 38 1 12 36
M  V30 39 1 12 37
M  V30 40 1 14 38
M  V30 41 1 14 39
M  V30 42 1 17 40
M  V30 43 1 17 41
M  V30 44 1 19 42
M  V30 45 1 22 43
M  V30 46 1 22 44
M  V30 47 1 22 45
M  V30 48 1 25 46
M  V30 49 1 25 47
M  V30 50 1 25 48
M  V30 END BOND
M  V30 END CTAB
M  END
