
     RDKit          3D

  0  0  0  0  0  0  0  0  0  0999 V3000
M  V30 BEGIN CTAB
M  V30 COUNTS 26 26 0 0 0
M  V30 BEGIN ATOM
M  V30 1 C 1.22454 -3.06267 -0.199474 0
M  V30 2 O 0.208518 -2.09762 -0.378022 0
M  V30 3 C 0.412099 -0.726827 -0.228092 0
M  V30 4 C 1.68743 -0.277073 0.115483 0
M  V30 5 C 1.92238 1.06411 0.271964 0
M  V30 6 N 3.21311 1.56028 0.625371 0
M  V30 7 C 0.875123 1.93751 0.0817673 0
M  V30 8 C -0.410208 1.52974 -0.261052 0
M  V30 9 C -0.616353 0.157549 -0.412331 0
M  V30 10 C -1.96415 -0.321533 -0.787529 0
M  V30 11 C -2.6659 -0.909186 0.36296 0
M  V30 12 O -2.35018 -2.02847 0.904583 0
M  V30 13 O -3.76543 -0.269597 0.97462 0
M  V30 14 N -1.45484 2.48314 -0.420253 0
M  V30 15 H 2.18938 -2.79634 -0.65499 0
M  V30 16 H 1.38614 -3.24335 0.884655 0
M  V30 17 H 0.825645 -4.02842 -0.620173 0
M  V30 18 H 2.46891 -0.988915 0.249346 0
M  V30 19 H 3.74888 1.2097 1.45597 0
M  V30 20 H 3.67938 2.29672 0.0743085 0
M  V30 21 H 1.03247 3.00905 0.196668 0
M  V30 22 H -2.58594 0.371314 -1.34694 0
M  V30 23 H -1.76139 -1.20062 -1.47774 0
M  V30 24 H -3.62442 0.589293 1.51654 0
M  V30 25 H -1.337 3.43665 -0.00464325 0
M  V30 26 H -2.33819 2.30556 -0.92299 0
M  V30 END ATOM
M  V30 BEGIN BOND
M  V30 1 1 1 2
M  V30 2 1 2 3
M  V30 3 2 3 4
M  V30 4 1 4 5
M  V30 5 1 5 6
M  V30 6 2 5 7
M  V30 7 1 7 8
M  V30 8 2 8 9
M  V30 9 1 9 10
M  V30 10 1 10 11
M  V30 11 2 11 12
M  V30 12 1 11 13
M  V30 13 1 8 14
M  V30 14 1 9 3
M  V30 15 1 1 15
M  V30 16 1 1 16
M  V30 17 1 1 17
M  V30 18 1 4 18
M  V30 19 1 6 19
M  V30 20 1 6 20
M  V30 21 1 7 21
M  V30 22 1 10 22
M  V30 23 1 10 23
M  V30 24 1 13 24
M  V30 25 1 14 25
M  V30 26 1 14 26
M  V30 END BOND
M  V30 END CTAB
M  END
