
     RDKit          3D

  0  0  0  0  0  0  0  0  0  0999 V3000
M  V30 BEGIN CTAB
M  V30 COUNTS 26 27 0 0 0
M  V30 BEGIN ATOM
M  V30 1 N -1.40529 1.82692 0.28776 0
M  V30 2 C -1.86644 0.532273 0.44016 0
M  V30 3 C -1.25548 -0.510111 -0.452539 0 CFG=2
M  V30 4 C -1.96875 -1.81915 -0.0437529 0
M  V30 5 C -1.30927 -2.01902 1.32695 0
M  V30 6 O -0.212952 -1.16114 1.3804 0
M  V30 7 C 0.130527 -0.960242 0.0454297 0 CFG=2
M  V30 8 C 1.17412 -0.00252629 -0.211614 0
M  V30 9 N 1.21404 0.915319 -1.18475 0
M  V30 10 N 2.31544 1.61352 -1.10702 0
M  V30 11 C 3.04828 1.1751 -0.068206 0
M  V30 12 N 2.31133 0.164877 0.473521 0
M  V30 13 N 4.31018 1.64348 0.383238 0
M  V30 14 H -1.65054 2.4434 1.04652 0
M  V30 15 H -1.47135 2.24042 -0.606133 0
M  V30 16 H -2.9725 0.518628 0.222789 0
M  V30 17 H -1.77041 0.15256 1.48736 0
M  V30 18 H -1.29358 -0.318221 -1.51488 0
M  V30 19 H -1.65219 -2.65806 -0.66892 0
M  V30 20 H -3.04423 -1.6752 0.0361696 0
M  V30 21 H -0.914491 -3.05618 1.42604 0
M  V30 22 H -2.05876 -1.8079 2.09837 0
M  V30 23 H 0.296404 -1.96977 -0.399678 0
M  V30 24 H 0.507227 1.1137 -1.94682 0
M  V30 25 H 4.67581 2.55028 0.0659082 0
M  V30 26 H 4.86288 1.06704 1.0352 0
M  V30 END ATOM
M  V30 BEGIN BOND
M  V30 1 1 1 2
M  V30 2 1 2 3
M  V30 3 1 3 4
M  V30 4 1 4 5
M  V30 5 1 5 6
M  V30 6 1 6 7
M  V30 7 1 7 8
M  V30 8 1 8 9
M  V30 9 1 9 10
M  V30 10 2 10 11
M  V30 11 1 11 12
M  V30 12 1 11 13
M  V30 13 1 7 3
M  V30 14 2 12 8
M  V30 15 1 1 14
M  V30 16 1 1 15
M  V30 17 1 2 16
M  V30 18 1 2 17
M  V30 19 1 3 18 CFG=3
M  V30 20 1 4 19
M  V30 21 1 4 20
M  V30 22 1 5 21
M  V30 23 1 5 22
M  V30 24 1 7 23 CFG=3
M  V30 25 1 9 24
M  V30 26 1 13 25
M  V30 27 1 13 26
M  V30 END BOND
M  V30 END CTAB
M  END
