
     RDKit          3D

  0  0  0  0  0  0  0  0  0  0999 V3000
M  V30 BEGIN CTAB
M  V30 COUNTS 28 29 0 0 0
M  V30 BEGIN ATOM
M  V30 1 N 4.56187 1.61498 0.615605 0
M  V30 2 C 3.39796 0.876499 0.244726 0
M  V30 3 N 2.23257 1.55223 0.129649 0
M  V30 4 C 1.10114 0.92174 -0.213672 0
M  V30 5 C 1.0941 -0.443102 -0.461346 0
M  V30 6 C -0.15319 -1.15901 -0.827339 0
M  V30 7 C -1.374 -0.486975 -0.363534 0
M  V30 8 C -2.04338 0.438486 -1.1285 0
M  V30 9 C -3.19539 1.07082 -0.67692 0
M  V30 10 C -3.69858 0.777661 0.572209 0
M  V30 11 O -4.84783 1.39504 1.04752 0
M  V30 12 C -3.03875 -0.152568 1.36015 0
M  V30 13 C -1.88506 -0.772047 0.880848 0
M  V30 14 C 2.27444 -1.12797 -0.346079 0
M  V30 15 N 2.39079 -2.54047 -0.585611 0
M  V30 16 N 3.38293 -0.421193 0.00727467 0
M  V30 17 H 4.8869 1.5479 1.59783 0
M  V30 18 H 5.09567 2.20892 -0.038587 0
M  V30 19 H 0.218054 1.50859 -0.285654 0
M  V30 20 H -0.183992 -1.37578 -1.91499 0
M  V30 21 H -0.052299 -2.1768 -0.336743 0
M  V30 22 H -1.69528 0.710456 -2.12375 0
M  V30 23 H -3.73037 1.79705 -1.26234 0
M  V30 24 H -4.85239 2.25531 1.5697 0
M  V30 25 H -3.39655 -0.417657 2.34983 0
M  V30 26 H -1.42493 -1.49035 1.56414 0
M  V30 27 H 1.65714 -3.22845 -0.364046 0
M  V30 28 H 3.27843 -2.8833 -1.01037 0
M  V30 END ATOM
M  V30 BEGIN BOND
M  V30 1 1 1 2
M  V30 2 2 2 3
M  V30 3 1 3 4
M  V30 4 2 4 5
M  V30 5 1 5 6
M  V30 6 1 6 7
M  V30 7 2 7 8
M  V30 8 1 8 9
M  V30 9 2 9 10
M  V30 10 1 10 11
M  V30 11 1 10 12
M  V30 12 2 12 13
M  V30 13 1 5 14
M  V30 14 1 14 15
M  V30 15 2 14 16
M  V30 16 1 16 2
M  V30 17 1 13 7
M  V30 18 1 1 17
M  V30 19 1 1 18
M  V30 20 1 4 19
M  V30 21 1 6 20
M  V30 22 1 6 21
M  V30 23 1 8 22
M  V30 24 1 9 23
M  V30 25 1 11 24
M  V30 26 1 12 25
M  V30 27 1 13 26
M  V30 28 1 15 27
M  V30 29 1 15 28
M  V30 END BOND
M  V30 END CTAB
M  END
