
     RDKit          3D

  0  0  0  0  0  0  0  0  0  0999 V3000
M  V30 BEGIN CTAB
M  V30 COUNTS 22 23 0 0 0
M  V30 BEGIN ATOM
M  V30 1 C 4.03006 0.340988 0.439609 0
M  V30 2 N 2.84651 -0.116164 -0.291182 0
M  V30 3 N 2.80842 -0.791551 -1.42873 0
M  V30 4 C 1.51203 -0.993998 -1.72618 0
M  V30 5 C 0.750593 -0.427188 -0.744626 0
M  V30 6 N 1.61856 0.10915 0.130344 0
M  V30 7 C -0.700071 -0.382964 -0.620911 0
M  V30 8 N -1.56536 -0.916163 -1.49067 0
M  V30 9 C -2.82691 -0.697525 -1.07927 0
M  V30 10 N -2.73376 -0.0124189 0.072799 0
M  V30 11 C -1.42437 0.202812 0.391361 0
M  V30 12 N -0.932086 0.888193 1.53035 0
M  V30 13 N -3.78332 0.429908 0.85423 0
M  V30 14 H 4.06328 1.44082 0.3253 0
M  V30 15 H 4.95014 -0.151258 0.0364996 0
M  V30 16 H 3.95937 0.125611 1.51873 0
M  V30 17 H 1.08444 -1.50905 -2.58019 0
M  V30 18 H -3.75335 -1.01282 -1.5795 0
M  V30 19 H -1.38989 0.775802 2.45425 0
M  V30 20 H -0.108742 1.51189 1.46111 0
M  V30 21 H -3.88855 1.42329 1.15242 0
M  V30 22 H -4.51698 -0.237366 1.17425 0
M  V30 END ATOM
M  V30 BEGIN BOND
M  V30 1 1 1 2
M  V30 2 1 2 3
M  V30 3 2 3 4
M  V30 4 1 4 5
M  V30 5 2 5 6
M  V30 6 1 5 7
M  V30 7 1 7 8
M  V30 8 2 8 9
M  V30 9 1 9 10
M  V30 10 1 10 11
M  V30 11 1 11 12
M  V30 12 1 10 13
M  V30 13 1 6 2
M  V30 14 2 11 7
M  V30 15 1 1 14
M  V30 16 1 1 15
M  V30 17 1 1 16
M  V30 18 1 4 17
M  V30 19 1 9 18
M  V30 20 1 12 19
M  V30 21 1 12 20
M  V30 22 1 13 21
M  V30 23 1 13 22
M  V30 END BOND
M  V30 END CTAB
M  END
