
     RDKit          3D

  0  0  0  0  0  0  0  0  0  0999 V3000
M  V30 BEGIN CTAB
M  V30 COUNTS 22 22 0 0 0
M  V30 BEGIN ATOM
M  V30 1 C 2.61164 1.13149 0.88135 0
M  V30 2 C 2.50423 0.212685 -0.307729 0
M  V30 3 O 1.48216 -0.719415 -0.20691 0
M  V30 4 C 0.149938 -0.486564 -0.0739389 0
M  V30 5 N -0.33384 0.756597 -0.0244125 0
M  V30 6 C -1.64373 1.02906 0.106371 0
M  V30 7 N -2.13644 2.36765 0.156843 0
M  V30 8 C -2.53345 -0.0321246 0.193876 0
M  V30 9 C -2.07051 -1.31041 0.14639 0
M  V30 10 C -0.722068 -1.53818 0.0118094 0
M  V30 11 N -0.228278 -2.88367 -0.0388495 0
M  V30 12 H 2.58566 0.551529 1.83619 0
M  V30 13 H 3.59942 1.64385 0.86678 0
M  V30 14 H 1.82696 1.90612 0.832006 0
M  V30 15 H 2.44179 0.830855 -1.22312 0
M  V30 16 H 3.47704 -0.344779 -0.371412 0
M  V30 17 H -1.5463 3.11566 0.554993 0
M  V30 18 H -3.08346 2.62608 -0.197595 0
M  V30 19 H -3.59783 0.121832 0.300071 0
M  V30 20 H -2.70938 -2.19193 0.209097 0
M  V30 21 H -0.680049 -3.65974 0.483729 0
M  V30 22 H 0.606494 -3.12661 -0.606561 0
M  V30 END ATOM
M  V30 BEGIN BOND
M  V30 1 1 1 2
M  V30 2 1 2 3
M  V30 3 1 3 4
M  V30 4 2 4 5
M  V30 5 1 5 6
M  V30 6 1 6 7
M  V30 7 2 6 8
M  V30 8 1 8 9
M  V30 9 2 9 10
M  V30 10 1 10 11
M  V30 11 1 10 4
M  V30 12 1 1 12
M  V30 13 1 1 13
M  V30 14 1 1 14
M  V30 15 1 2 15
M  V30 16 1 2 16
M  V30 17 1 7 17
M  V30 18 1 7 18
M  V30 19 1 8 19
M  V30 20 1 9 20
M  V30 21 1 11 21
M  V30 22 1 11 22
M  V30 END BOND
M  V30 END CTAB
M  END
