
     RDKit          3D

  0  0  0  0  0  0  0  0  0  0999 V3000
M  V30 BEGIN CTAB
M  V30 COUNTS 44 46 0 0 0
M  V30 BEGIN ATOM
M  V30 1 C -1.65338 3.97731 0.391874 0
M  V30 2 C -0.733303 2.7429 0.422682 0
M  V30 3 C -1.46909 1.63594 -0.267064 0
M  V30 4 N -0.792511 0.386795 -0.361808 0
M  V30 5 C -1.51319 -0.711814 -0.99988 0
M  V30 6 C -2.73679 -1.12866 -0.299204 0
M  V30 7 C -3.98104 -0.813185 -0.781456 0
M  V30 8 C -5.09819 -1.23938 -0.114339 0
M  V30 9 C -4.9986 -1.97909 1.03259 0
M  V30 10 Cl -6.45611 -2.52653 1.86902 0
M  V30 11 C -3.76147 -2.32247 1.56188 0
M  V30 12 C -2.66184 -1.87844 0.865052 0
M  V30 13 C 0.52768 0.142409 0.0944378 0
M  V30 14 C 1.52649 -0.139144 -0.846431 0
M  V30 15 C 2.82779 -0.403309 -0.513623 0
M  V30 16 C 3.14789 -0.382887 0.825843 0
M  V30 17 C 2.18992 -0.108802 1.7806 0
M  V30 18 C 0.872586 0.154736 1.42422 0
M  V30 19 N 4.43173 -0.653965 1.16774 0
M  V30 20 C 5.33885 -0.930974 0.206054 0
M  V30 21 N 6.68904 -1.22374 0.534326 0
M  V30 22 N 5.00881 -0.944772 -1.11603 0
M  V30 23 C 3.76063 -0.686399 -1.51851 0
M  V30 24 N 3.35503 -0.705219 -2.88682 0
M  V30 25 H -2.7251 3.68842 0.48998 0
M  V30 26 H -1.55787 4.49763 -0.588282 0
M  V30 27 H -1.42274 4.67352 1.21255 0
M  V30 28 H -0.605577 2.51191 1.50138 0
M  V30 29 H 0.189348 3.01456 -0.0806083 0
M  V30 30 H -1.60372 1.99592 -1.33348 0
M  V30 31 H -2.46902 1.53656 0.221632 0
M  V30 32 H -1.81242 -0.28607 -2.00035 0
M  V30 33 H -0.84947 -1.58626 -1.08433 0
M  V30 34 H -4.11722 -0.222841 -1.70514 0
M  V30 35 H -6.08365 -0.967414 -0.528849 0
M  V30 36 H -3.71339 -2.89863 2.46346 0
M  V30 37 H -1.68752 -2.16442 1.29322 0
M  V30 38 H 1.29685 -0.152396 -1.90576 0
M  V30 39 H 2.46182 -0.100445 2.83469 0
M  V30 40 H 0.145593 0.367422 2.20993 0
M  V30 41 H 7.29704 -0.533658 1.00362 0
M  V30 42 H 7.10513 -2.15819 0.308965 0
M  V30 43 H 2.48284 -1.2428 -3.11265 0
M  V30 44 H 3.84815 -0.234133 -3.67112 0
M  V30 END ATOM
M  V30 BEGIN BOND
M  V30 1 1 1 2
M  V30 2 1 2 3
M  V30 3 1 3 4
M  V30 4 1 4 5
M  V30 5 1 5 6
M  V30 6 2 6 7
M  V30 7 1 7 8
M  V30 8 2 8 9
M  V30 9 1 9 10
M  V30 10 1 9 11
M  V30 11 2 11 12
M  V30 12 1 4 13
M  V30 13 2 13 14
M  V30 14 1 14 15
M  V30 15 2 15 16
M  V30 16 1 16 17
M  V30 17 2 17 18
M  V30 18 1 16 19
M  V30 19 2 19 20
M  V30 20 1 20 21
M  V30 21 1 20 22
M  V30 22 2 22 23
M  V30 23 1 23 24
M  V30 24 1 12 6
M  V30 25 1 18 13
M  V30 26 1 23 15
M  V30 27 1 1 25
M  V30 28 1 1 26
M  V30 29 1 1 27
M  V30 30 1 2 28
M  V30 31 1 2 29
M  V30 32 1 3 30
M  V30 33 1 3 31
M  V30 34 1 5 32
M  V30 35 1 5 33
M  V30 36 1 7 34
M  V30 37 1 8 35
M  V30 38 1 11 36
M  V30 39 1 12 37
M  V30 40 1 14 38
M  V30 41 1 17 39
M  V30 42 1 18 40
M  V30 43 1 21 41
M  V30 44 1 21 42
M  V30 45 1 24 43
M  V30 46 1 24 44
M  V30 END BOND
M  V30 END CTAB
M  END
