
     RDKit          3D

  0  0  0  0  0  0  0  0  0  0999 V3000
M  V30 BEGIN CTAB
M  V30 COUNTS 43 45 0 0 0
M  V30 BEGIN ATOM
M  V30 1 C -6.75223 2.12917 0.00999269 0
M  V30 2 C -5.6175 1.42411 -0.745719 0
M  V30 3 C -5.64502 1.3867 -2.11941 0
M  V30 4 S -4.21942 0.522735 -2.4752 0
M  V30 5 C -3.66463 0.254349 -0.878905 0
M  V30 6 N -4.60257 0.841733 -0.161271 0
M  V30 7 N -2.47594 -0.441989 -0.43482 0
M  V30 8 C -2.13362 -1.71476 -0.655323 0
M  V30 9 C -2.97663 -2.67219 -1.44854 0
M  V30 10 C -0.926314 -1.97979 -0.0521954 0
M  V30 11 C -0.49595 -0.791314 0.582438 0
M  V30 12 C -1.50769 0.100083 0.295491 0
M  V30 13 C -1.53498 1.53049 0.750031 0
M  V30 14 C 0.733457 -0.669821 1.3292 0
M  V30 15 O 1.44818 -1.73424 1.43521 0
M  V30 16 C 1.27916 0.516962 1.98896 0
M  V30 17 S 2.3894 1.50298 0.956563 0
M  V30 18 C 3.91358 0.662671 0.581565 0
M  V30 19 N 4.15668 -0.554054 1.03883 0
M  V30 20 C 5.30099 -1.18502 0.764147 0
M  V30 21 N 5.59255 -2.49077 1.23936 0
M  V30 22 C 6.25869 -0.5505 -0.0196859 0
M  V30 23 C 5.99954 0.709083 -0.489353 0
M  V30 24 N 4.84618 1.28017 -0.181489 0
M  V30 25 N 6.99426 1.3556 -1.29498 0
M  V30 26 H -6.53741 3.23259 -0.0642711 0
M  V30 27 H -7.69677 1.85864 -0.461276 0
M  V30 28 H -6.6822 1.88972 1.08979 0
M  V30 29 H -6.41445 1.81922 -2.78715 0
M  V30 30 H -2.76092 -3.70641 -1.0747 0
M  V30 31 H -4.05173 -2.43193 -1.34803 0
M  V30 32 H -2.62624 -2.64502 -2.49951 0
M  V30 33 H -0.387923 -2.92075 -0.0524242 0
M  V30 34 H -1.79472 1.59528 1.82907 0
M  V30 35 H -0.646084 2.091 0.444331 0
M  V30 36 H -2.38349 2.0876 0.247798 0
M  V30 37 H 1.82369 0.239388 2.94461 0
M  V30 38 H 0.471292 1.17761 2.34032 0
M  V30 39 H 5.2867 -2.77521 2.18918 0
M  V30 40 H 6.11609 -3.12391 0.593816 0
M  V30 41 H 7.21043 -1.02876 -0.270151 0
M  V30 42 H 7.23766 1.02932 -2.24265 0
M  V30 43 H 7.47592 2.17923 -0.893678 0
M  V30 END ATOM
M  V30 BEGIN BOND
M  V30 1 1 1 2
M  V30 2 2 2 3
M  V30 3 1 3 4
M  V30 4 1 4 5
M  V30 5 2 5 6
M  V30 6 1 5 7
M  V30 7 1 7 8
M  V30 8 1 8 9
M  V30 9 2 8 10
M  V30 10 1 10 11
M  V30 11 2 11 12
M  V30 12 1 12 13
M  V30 13 1 11 14
M  V30 14 2 14 15
M  V30 15 1 14 16
M  V30 16 1 16 17
M  V30 17 1 17 18
M  V30 18 2 18 19
M  V30 19 1 19 20
M  V30 20 1 20 21
M  V30 21 2 20 22
M  V30 22 1 22 23
M  V30 23 2 23 24
M  V30 24 1 23 25
M  V30 25 1 6 2
M  V30 26 1 12 7
M  V30 27 1 24 18
M  V30 28 1 1 26
M  V30 29 1 1 27
M  V30 30 1 1 28
M  V30 31 1 3 29
M  V30 32 1 9 30
M  V30 33 1 9 31
M  V30 34 1 9 32
M  V30 35 1 10 33
M  V30 36 1 13 34
M  V30 37 1 13 35
M  V30 38 1 13 36
M  V30 39 1 16 37
M  V30 40 1 16 38
M  V30 41 1 21 39
M  V30 42 1 21 40
M  V30 43 1 22 41
M  V30 44 1 25 42
M  V30 45 1 25 43
M  V30 END BOND
M  V30 END CTAB
M  END
