
     RDKit          3D

  0  0  0  0  0  0  0  0  0  0999 V3000
M  V30 BEGIN CTAB
M  V30 COUNTS 22 23 0 0 0
M  V30 BEGIN ATOM
M  V30 1 N 4.49395 0.776381 0.610507 0
M  V30 2 C 3.18768 0.257209 0.433412 0
M  V30 3 N 2.88589 -1.05405 0.475291 0
M  V30 4 N 1.59496 -1.14591 0.271003 0
M  V30 5 C 1.03894 0.0478583 0.0972982 0
M  V30 6 N 2.04092 0.939247 0.198865 0
M  V30 7 C -0.386287 0.350792 -0.156369 0
M  V30 8 S -1.12929 1.85687 -0.383648 0
M  V30 9 C -2.73345 1.34051 -0.609442 0
M  V30 10 C -2.6454 -0.0203796 -0.499369 0
M  V30 11 C -1.42073 -0.545611 -0.262332 0
M  V30 12 C -1.14263 -2.04082 -0.111656 0
M  V30 13 N -3.92569 2.12665 -0.859524 0
M  V30 14 H 5.31445 0.317863 0.156659 0
M  V30 15 H 4.63866 1.62558 1.2003 0
M  V30 16 H 3.58516 -1.82002 0.642645 0
M  V30 17 H -3.55161 -0.673647 -0.601684 0
M  V30 18 H -2.08242 -2.56804 -0.197276 0
M  V30 19 H -0.678288 -2.19821 0.904034 0
M  V30 20 H -0.390579 -2.35725 -0.858794 0
M  V30 21 H -4.76354 1.92446 -0.270035 0
M  V30 22 H -3.9307 2.86051 -1.60137 0
M  V30 END ATOM
M  V30 BEGIN BOND
M  V30 1 1 1 2
M  V30 2 1 2 3
M  V30 3 1 3 4
M  V30 4 2 4 5
M  V30 5 1 5 6
M  V30 6 1 5 7
M  V30 7 1 7 8
M  V30 8 1 8 9
M  V30 9 2 9 10
M  V30 10 1 10 11
M  V30 11 1 11 12
M  V30 12 1 9 13
M  V30 13 2 6 2
M  V30 14 2 11 7
M  V30 15 1 1 14
M  V30 16 1 1 15
M  V30 17 1 3 16
M  V30 18 1 10 17
M  V30 19 1 12 18
M  V30 20 1 12 19
M  V30 21 1 12 20
M  V30 22 1 13 21
M  V30 23 1 13 22
M  V30 END BOND
M  V30 END CTAB
M  END
