
     RDKit          3D

  0  0  0  0  0  0  0  0  0  0999 V3000
M  V30 BEGIN CTAB
M  V30 COUNTS 39 41 0 0 0
M  V30 BEGIN ATOM
M  V30 1 N 0.457479 -3.84153 -1.72911 0
M  V30 2 C -0.223644 -2.99019 -1.36245 0
M  V30 3 C -1.07716 -1.89223 -0.912147 0
M  V30 4 C -2.21709 -2.17583 -0.313459 0
M  V30 5 N -2.54046 -3.57241 -0.145401 0
M  V30 6 O -3.11741 -1.23901 0.160692 0
M  V30 7 C -2.74847 0.108674 -0.0318438 0
M  V30 8 C -1.58355 0.476828 -0.643567 0
M  V30 9 C -0.646161 -0.520924 -1.13433 0
M  V30 10 C 0.754051 -0.279667 -0.692828 0
M  V30 11 C 1.62707 0.444649 -1.47296 0
M  V30 12 C 2.93119 0.69629 -1.11127 0
M  V30 13 C 3.41739 0.211723 0.0872614 0
M  V30 14 C 2.55067 -0.515699 0.87709 0
M  V30 15 C 1.24479 -0.761689 0.50389 0
M  V30 16 C 3.00007 -1.06998 2.18053 0
M  V30 17 C 4.83153 0.472938 0.500953 0
M  V30 18 C -1.3394 1.84037 -0.77127 0
M  V30 19 C -2.1905 2.8023 -0.323657 0
M  V30 20 C -3.36327 2.43397 0.292353 0
M  V30 21 C -3.62611 1.09781 0.429771 0
M  V30 22 N -4.26874 3.44035 0.768634 0
M  V30 23 H -2.29693 -4.21788 -0.901071 0
M  V30 24 H -2.99772 -3.89266 0.705564 0
M  V30 25 H -0.62524 -0.385427 -2.26426 0
M  V30 26 H 1.27499 0.845164 -2.43212 0
M  V30 27 H 3.6127 1.2727 -1.74045 0
M  V30 28 H 0.568171 -1.33259 1.12605 0
M  V30 29 H 2.592 -0.370205 2.96273 0
M  V30 30 H 4.07388 -1.21596 2.25597 0
M  V30 31 H 2.49934 -2.06153 2.34139 0
M  V30 32 H 5.36501 0.900821 -0.377469 0
M  V30 33 H 5.34124 -0.417446 0.871146 0
M  V30 34 H 4.82869 1.29719 1.26434 0
M  V30 35 H -0.419214 2.13211 -1.25576 0
M  V30 36 H -1.98226 3.86506 -0.432581 0
M  V30 37 H -4.53704 0.763844 0.908204 0
M  V30 38 H -4.36634 4.29078 0.167476 0
M  V30 39 H -4.80355 3.35928 1.64396 0
M  V30 END ATOM
M  V30 BEGIN BOND
M  V30 1 3 1 2
M  V30 2 1 2 3
M  V30 3 2 3 4
M  V30 4 1 4 5
M  V30 5 1 4 6
M  V30 6 1 6 7
M  V30 7 2 7 8
M  V30 8 1 8 9
M  V30 9 1 9 10
M  V30 10 2 10 11
M  V30 11 1 11 12
M  V30 12 2 12 13
M  V30 13 1 13 14
M  V30 14 2 14 15
M  V30 15 1 14 16
M  V30 16 1 13 17
M  V30 17 1 8 18
M  V30 18 2 18 19
M  V30 19 1 19 20
M  V30 20 2 20 21
M  V30 21 1 20 22
M  V30 22 1 9 3
M  V30 23 1 15 10
M  V30 24 1 21 7
M  V30 25 1 5 23
M  V30 26 1 5 24
M  V30 27 1 9 25
M  V30 28 1 11 26
M  V30 29 1 12 27
M  V30 30 1 15 28
M  V30 31 1 16 29
M  V30 32 1 16 30
M  V30 33 1 16 31
M  V30 34 1 17 32
M  V30 35 1 17 33
M  V30 36 1 17 34
M  V30 37 1 18 35
M  V30 38 1 19 36
M  V30 39 1 21 37
M  V30 40 1 22 38
M  V30 41 1 22 39
M  V30 END BOND
M  V30 END CTAB
M  END
