
     RDKit          3D

  0  0  0  0  0  0  0  0  0  0999 V3000
M  V30 BEGIN CTAB
M  V30 COUNTS 34 34 0 0 0
M  V30 BEGIN ATOM
M  V30 1 C -2.3107 -1.55107 -0.717048 0
M  V30 2 C -2.01595 -1.07594 0.665656 0
M  V30 3 C -1.07704 0.10511 0.739895 0
M  V30 4 C -1.6837 1.23157 -0.00367475 0
M  V30 5 O -1.02056 1.90396 -0.830656 0
M  V30 6 N -3.03408 1.58991 0.192299 0
M  V30 7 N -3.59522 2.64695 -0.508765 0
M  V30 8 N 0.267744 -0.159551 0.455496 0
M  V30 9 C 0.685325 -0.609601 -0.783879 0
M  V30 10 C 2.13264 -0.390336 -1.13296 0
M  V30 11 C 3.0581 -0.487525 0.0383754 0
M  V30 12 C 2.56233 0.189526 1.27478 0
M  V30 13 C 1.15628 -0.233434 1.55541 0
M  V30 14 N 4.30658 0.187239 -0.352279 0
M  V30 15 H -1.74439 -2.4632 -1.02005 0
M  V30 16 H -3.41083 -1.81504 -0.750015 0
M  V30 17 H -2.18309 -0.805955 -1.51087 0
M  V30 18 H -1.59427 -1.95686 1.2182 0
M  V30 19 H -2.95898 -0.833618 1.19532 0
M  V30 20 H -1.12115 0.418528 1.83463 0
M  V30 21 H -3.60955 1.06475 0.8597 0
M  V30 22 H -4.40491 2.35993 -1.10051 0
M  V30 23 H -3.82305 3.40606 0.161435 0
M  V30 24 H 0.105283 -0.149304 -1.61131 0
M  V30 25 H 0.51384 -1.71737 -0.871364 0
M  V30 26 H 2.46433 -1.12962 -1.89292 0
M  V30 27 H 2.27695 0.613431 -1.5952 0
M  V30 28 H 3.34357 -1.51993 0.296866 0
M  V30 29 H 2.69875 1.29086 1.2365 0
M  V30 30 H 3.19626 -0.177857 2.12689 0
M  V30 31 H 0.768013 0.401958 2.37822 0
M  V30 32 H 1.1781 -1.27968 1.96926 0
M  V30 33 H 4.75054 -0.270258 -1.1573 0
M  V30 34 H 4.12283 1.21637 -0.499754 0
M  V30 END ATOM
M  V30 BEGIN BOND
M  V30 1 1 1 2
M  V30 2 1 2 3
M  V30 3 1 3 4
M  V30 4 2 4 5
M  V30 5 1 4 6
M  V30 6 1 6 7
M  V30 7 1 3 8
M  V30 8 1 8 9
M  V30 9 1 9 10
M  V30 10 1 10 11
M  V30 11 1 11 12
M  V30 12 1 12 13
M  V30 13 1 11 14
M  V30 14 1 13 8
M  V30 15 1 1 15
M  V30 16 1 1 16
M  V30 17 1 1 17
M  V30 18 1 2 18
M  V30 19 1 2 19
M  V30 20 1 3 20
M  V30 21 1 6 21
M  V30 22 1 7 22
M  V30 23 1 7 23
M  V30 24 1 9 24
M  V30 25 1 9 25
M  V30 26 1 10 26
M  V30 27 1 10 27
M  V30 28 1 11 28
M  V30 29 1 12 29
M  V30 30 1 12 30
M  V30 31 1 13 31
M  V30 32 1 13 32
M  V30 33 1 14 33
M  V30 34 1 14 34
M  V30 END BOND
M  V30 END CTAB
M  END
