
     RDKit          3D

  0  0  0  0  0  0  0  0  0  0999 V3000
M  V30 BEGIN CTAB
M  V30 COUNTS 35 36 0 0 0
M  V30 BEGIN ATOM
M  V30 1 N 4.88687 -0.34705 1.66219 0
M  V30 2 C 3.86292 -0.0361601 0.729761 0
M  V30 3 C 4.12753 0.726386 -0.383791 0
M  V30 4 C 3.12131 1.01037 -1.2656 0
M  V30 5 C 1.83972 0.536191 -1.04545 0
M  V30 6 C 1.54892 -0.23555 0.0718011 0
M  V30 7 C 2.57756 -0.510355 0.94834 0
M  V30 8 C 0.175001 -0.747711 0.313821 0 CFG=2
M  V30 9 C -0.202334 -1.6987 -0.786896 0
M  V30 10 O -1.41394 -2.29484 -0.511813 0
M  V30 11 C -2.49594 -1.71205 -1.11783 0
M  V30 12 C -2.53866 -0.225598 -0.979132 0
M  V30 13 N -2.1319 0.128678 0.35125 0
M  V30 14 C -0.73226 0.419613 0.46523 0
M  V30 15 S -2.98452 1.59859 0.760946 0
M  V30 16 O -2.55947 2.08277 2.13348 0
M  V30 17 O -2.65656 2.6887 -0.201595 0
M  V30 18 N -4.68501 1.35585 0.749231 0
M  V30 19 H 4.81849 -1.21037 2.21047 0
M  V30 20 H 5.69793 0.309078 1.77759 0
M  V30 21 H 5.14274 1.07098 -0.508306 0
M  V30 22 H 3.31678 1.60954 -2.14584 0
M  V30 23 H 1.02873 0.740108 -1.71606 0
M  V30 24 H 2.34854 -1.11724 1.8268 0
M  V30 25 H 0.190759 -1.3295 1.25699 0
M  V30 26 H -0.147958 -1.24302 -1.79569 0
M  V30 27 H 0.562623 -2.50958 -0.780587 0
M  V30 28 H -2.61072 -1.9695 -2.18942 0
M  V30 29 H -3.41539 -2.11511 -0.599508 0
M  V30 30 H -1.99642 0.326167 -1.76123 0
M  V30 31 H -3.61867 0.0848054 -1.09104 0
M  V30 32 H -0.487164 1.18991 -0.292426 0
M  V30 33 H -0.563876 0.876321 1.46212 0
M  V30 34 H -4.89285 0.415561 1.13258 0
M  V30 35 H -5.11278 2.13271 1.31964 0
M  V30 END ATOM
M  V30 BEGIN BOND
M  V30 1 1 1 2
M  V30 2 2 2 3
M  V30 3 1 3 4
M  V30 4 2 4 5
M  V30 5 1 5 6
M  V30 6 2 6 7
M  V30 7 1 6 8
M  V30 8 1 8 9
M  V30 9 1 9 10
M  V30 10 1 10 11
M  V30 11 1 11 12
M  V30 12 1 12 13
M  V30 13 1 13 14
M  V30 14 1 13 15
M  V30 15 2 15 16
M  V30 16 2 15 17
M  V30 17 1 15 18
M  V30 18 1 7 2
M  V30 19 1 14 8
M  V30 20 1 1 19
M  V30 21 1 1 20
M  V30 22 1 3 21
M  V30 23 1 4 22
M  V30 24 1 5 23
M  V30 25 1 7 24
M  V30 26 1 8 25 CFG=1
M  V30 27 1 9 26
M  V30 28 1 9 27
M  V30 29 1 11 28
M  V30 30 1 11 29
M  V30 31 1 12 30
M  V30 32 1 12 31
M  V30 33 1 14 32
M  V30 34 1 14 33
M  V30 35 1 18 34
M  V30 36 1 18 35
M  V30 END BOND
M  V30 END CTAB
M  END
