
     RDKit          3D

  0  0  0  0  0  0  0  0  0  0999 V3000
M  V30 BEGIN CTAB
M  V30 COUNTS 41 42 0 0 0
M  V30 BEGIN ATOM
M  V30 1 C -2.66129 2.9719 -0.923203 0
M  V30 2 Si -2.00864 1.50011 0.0697874 0 VAL=4
M  V30 3 C -2.15145 2.01247 1.88075 0
M  V30 4 O -2.99127 0.19051 -0.304828 0
M  V30 5 Si -2.33689 -1.32497 0.0331766 0 VAL=4
M  V30 6 C -2.33998 -1.60128 1.8735 0
M  V30 7 C -3.44529 -2.62796 -0.728694 0
M  V30 8 N -0.745461 -1.44887 -0.694035 0
M  V30 9 N -0.235875 -2.71415 -0.801372 0
M  V30 10 P 0.355947 -0.241863 -0.168055 0
M  V30 11 S 0.943233 -0.525841 1.44245 0
M  V30 12 O 1.75301 -0.316969 -1.18776 0
M  V30 13 C 3.03533 -0.161395 -0.693764 0
M  V30 14 C 3.70645 -1.30472 -0.272822 0
M  V30 15 C 4.99033 -1.17123 0.224722 0
M  V30 16 C 5.61788 0.0510028 0.314497 0
M  V30 17 C 4.95202 1.18844 -0.10355 0
M  V30 18 C 3.66663 1.06509 -0.603047 0
M  V30 19 N -0.310914 1.32925 -0.292586 0
M  V30 20 N 0.148302 2.0804 -1.36006 0
M  V30 21 H -1.8737 3.70618 -1.08725 0
M  V30 22 H -3.10647 2.59145 -1.88463 0
M  V30 23 H -3.52606 3.37534 -0.342664 0
M  V30 24 H -1.56645 2.97672 1.94654 0
M  V30 25 H -1.65357 1.3117 2.54729 0
M  V30 26 H -3.18416 2.26727 2.13908 0
M  V30 27 H -1.54029 -1.08099 2.40135 0
M  V30 28 H -3.3052 -1.20547 2.26132 0
M  V30 29 H -2.36478 -2.70182 2.11957 0
M  V30 30 H -2.99946 -3.03875 -1.64147 0
M  V30 31 H -4.44386 -2.21849 -0.974646 0
M  V30 32 H -3.62529 -3.47508 -0.0299748 0
M  V30 33 H -0.337016 -3.06295 -1.79376 0
M  V30 34 H -0.619568 -3.40554 -0.119995 0
M  V30 35 H 3.227 -2.25485 -0.339252 0
M  V30 36 H 5.50947 -2.0811 0.553706 0
M  V30 37 H 6.64005 0.122943 0.715171 0
M  V30 38 H 5.44093 2.15432 -0.0354269 0
M  V30 39 H 3.16408 1.95208 -0.92236 0
M  V30 40 H -0.532413 2.24882 -2.10728 0
M  V30 41 H 0.754697 2.86826 -1.11043 0
M  V30 END ATOM
M  V30 BEGIN BOND
M  V30 1 1 1 2
M  V30 2 1 2 3
M  V30 3 1 2 4
M  V30 4 1 4 5
M  V30 5 1 5 6
M  V30 6 1 5 7
M  V30 7 1 5 8
M  V30 8 1 8 9
M  V30 9 1 8 10
M  V30 10 2 10 11
M  V30 11 1 10 12
M  V30 12 1 12 13
M  V30 13 2 13 14
M  V30 14 1 14 15
M  V30 15 2 15 16
M  V30 16 1 16 17
M  V30 17 2 17 18
M  V30 18 1 10 19
M  V30 19 1 19 20
M  V30 20 1 19 2
M  V30 21 1 18 13
M  V30 22 1 1 21
M  V30 23 1 1 22
M  V30 24 1 1 23
M  V30 25 1 3 24
M  V30 26 1 3 25
M  V30 27 1 3 26
M  V30 28 1 6 27
M  V30 29 1 6 28
M  V30 30 1 6 29
M  V30 31 1 7 30
M  V30 32 1 7 31
M  V30 33 1 7 32
M  V30 34 1 9 33
M  V30 35 1 9 34
M  V30 36 1 14 35
M  V30 37 1 15 36
M  V30 38 1 16 37
M  V30 39 1 17 38
M  V30 40 1 18 39
M  V30 41 1 20 40
M  V30 42 1 20 41
M  V30 END BOND
M  V30 END CTAB
M  END
