
     RDKit          3D

  0  0  0  0  0  0  0  0  0  0999 V3000
M  V30 BEGIN CTAB
M  V30 COUNTS 31 32 0 0 0
M  V30 BEGIN ATOM
M  V30 1 N -4.8923 0.953753 1.33512 0
M  V30 2 C -3.70859 0.393375 0.787241 0
M  V30 3 C -2.70905 1.17862 0.254721 0
M  V30 4 C -1.55561 0.664754 -0.278192 0
M  V30 5 C -1.32494 -0.712167 -0.311303 0
M  V30 6 C -0.118245 -1.26995 -0.942741 0
M  V30 7 C 1.14031 -0.578327 -0.708395 0
M  V30 8 C 1.95838 -0.773433 0.355868 0
M  V30 9 C 3.11827 0.021487 0.444549 0
M  V30 10 C 3.43319 0.963888 -0.498066 0
M  V30 11 N 4.62445 1.7624 -0.386818 0
M  V30 12 C 2.61241 1.17431 -1.58875 0
M  V30 13 C 1.48588 0.400909 -1.67114 0
M  V30 14 N 1.79287 -1.76149 1.3777 0 CHG=1
M  V30 15 O 0.581625 -2.1838 1.78024 0 CHG=-1
M  V30 16 O 2.85411 -2.24457 1.90021 0
M  V30 17 C -2.32771 -1.4927 0.222923 0
M  V30 18 C -3.47956 -0.966704 0.754304 0
M  V30 19 H -5.5576 0.407595 1.92104 0
M  V30 20 H -5.11454 1.9519 1.14936 0
M  V30 21 H -2.89204 2.26117 0.280775 0
M  V30 22 H -0.813057 1.32134 -0.679541 0
M  V30 23 H -0.265252 -1.39375 -2.05518 0
M  V30 24 H -0.0489591 -2.34816 -0.592387 0
M  V30 25 H 3.7665 -0.1386 1.29812 0
M  V30 26 H 5.33421 1.56011 0.344082 0
M  V30 27 H 4.80301 2.55386 -1.03236 0
M  V30 28 H 2.88423 1.92271 -2.31889 0
M  V30 29 H 0.846131 0.573338 -2.531 0
M  V30 30 H -2.16949 -2.58618 0.213535 0
M  V30 31 H -4.25861 -1.61567 1.17499 0
M  V30 END ATOM
M  V30 BEGIN BOND
M  V30 1 1 1 2
M  V30 2 2 2 3
M  V30 3 1 3 4
M  V30 4 2 4 5
M  V30 5 1 5 6
M  V30 6 1 6 7
M  V30 7 2 7 8
M  V30 8 1 8 9
M  V30 9 2 9 10
M  V30 10 1 10 11
M  V30 11 1 10 12
M  V30 12 2 12 13
M  V30 13 1 8 14
M  V30 14 1 14 15
M  V30 15 2 14 16
M  V30 16 1 5 17
M  V30 17 2 17 18
M  V30 18 1 18 2
M  V30 19 1 13 7
M  V30 20 1 1 19
M  V30 21 1 1 20
M  V30 22 1 3 21
M  V30 23 1 4 22
M  V30 24 1 6 23
M  V30 25 1 6 24
M  V30 26 1 9 25
M  V30 27 1 11 26
M  V30 28 1 11 27
M  V30 29 1 12 28
M  V30 30 1 13 29
M  V30 31 1 17 30
M  V30 32 1 18 31
M  V30 END BOND
M  V30 END CTAB
M  END
