
     RDKit          3D

  0  0  0  0  0  0  0  0  0  0999 V3000
M  V30 BEGIN CTAB
M  V30 COUNTS 28 28 0 0 0
M  V30 BEGIN ATOM
M  V30 1 N -3.68318 -1.50587 0.325845 0
M  V30 2 N -2.34824 -1.25646 0.169664 0
M  V30 3 C -1.74384 -0.1188 0.227818 0
M  V30 4 C -0.337066 -0.0160869 0.0430892 0
M  V30 5 C 0.296175 1.2186 0.109229 0
M  V30 6 C -0.477769 2.43221 0.36937 0
M  V30 7 C 1.68601 1.29605 -0.0757276 0
M  V30 8 C 2.47214 0.201431 -0.323127 0
M  V30 9 C 1.83469 -1.00585 -0.385262 0
M  V30 10 C 0.44958 -1.12713 -0.206455 0
M  V30 11 C -0.161955 -2.46368 -0.288464 0
M  V30 12 C 3.94895 0.347683 -0.511633 0
M  V30 13 N -2.66132 0.954064 0.492107 0
M  V30 14 H -4.05253 -1.75754 1.26472 0
M  V30 15 H -4.36413 -1.45732 -0.456408 0
M  V30 16 H -0.900585 2.52127 1.3879 0
M  V30 17 H -1.15772 2.75015 -0.449043 0
M  V30 18 H 0.284899 3.29556 0.364277 0
M  V30 19 H 2.17339 2.26448 -0.02251 0
M  V30 20 H 2.41483 -1.889 -0.577285 0
M  V30 21 H -0.797406 -2.59977 -1.17002 0
M  V30 22 H -0.562918 -2.85874 0.665208 0
M  V30 23 H 0.704762 -3.18935 -0.502289 0
M  V30 24 H 4.28728 -0.112803 -1.45882 0
M  V30 25 H 4.51518 -0.0451828 0.355805 0
M  V30 26 H 4.18352 1.42813 -0.575093 0
M  V30 27 H -2.86306 1.20976 1.48064 0
M  V30 28 H -3.1397 1.48418 -0.253532 0
M  V30 END ATOM
M  V30 BEGIN BOND
M  V30 1 1 1 2
M  V30 2 2 2 3 CFG=2
M  V30 3 1 3 4
M  V30 4 2 4 5
M  V30 5 1 5 6
M  V30 6 1 5 7
M  V30 7 2 7 8
M  V30 8 1 8 9
M  V30 9 2 9 10
M  V30 10 1 10 11
M  V30 11 1 8 12
M  V30 12 1 3 13
M  V30 13 1 10 4
M  V30 14 1 1 14
M  V30 15 1 1 15
M  V30 16 1 6 16
M  V30 17 1 6 17
M  V30 18 1 6 18
M  V30 19 1 7 19
M  V30 20 1 9 20
M  V30 21 1 11 21
M  V30 22 1 11 22
M  V30 23 1 11 23
M  V30 24 1 12 24
M  V30 25 1 12 25
M  V30 26 1 12 26
M  V30 27 1 13 27
M  V30 28 1 13 28
M  V30 END BOND
M  V30 END CTAB
M  END
