
     RDKit          3D

  0  0  0  0  0  0  0  0  0  0999 V3000
M  V30 BEGIN CTAB
M  V30 COUNTS 20 20 0 0 0
M  V30 BEGIN ATOM
M  V30 1 N -3.56767 0.455868 -0.773987 0
M  V30 2 C -2.24527 0.116538 -0.389037 0
M  V30 3 C -1.3824 1.15259 -0.110527 0
M  V30 4 N -0.127732 0.848496 0.255082 0
M  V30 5 C 0.279166 -0.443968 0.347702 0
M  V30 6 C -0.556591 -1.49227 0.0769717 0
M  V30 7 C -1.84724 -1.21862 -0.299974 0
M  V30 8 Br 0.0612781 -3.28234 0.221377 0
M  V30 9 N 1.60494 -0.713653 0.735146 0
M  V30 10 S 2.67281 0.578665 1.08002 0
M  V30 11 O 3.69283 0.209524 2.12348 0
M  V30 12 O 1.84126 1.75515 1.52758 0
M  V30 13 N 3.46302 0.994031 -0.422323 0
M  V30 14 H -4.39131 0.177318 -0.18435 0
M  V30 15 H -3.73006 0.984851 -1.64629 0
M  V30 16 H -1.7209 2.19912 -0.188188 0
M  V30 17 H -2.55238 -1.98711 -0.525877 0
M  V30 18 H 1.94391 -1.68281 0.814648 0
M  V30 19 H 3.89428 0.116136 -0.807656 0
M  V30 20 H 2.66807 1.23249 -1.0822 0
M  V30 END ATOM
M  V30 BEGIN BOND
M  V30 1 1 1 2
M  V30 2 2 2 3
M  V30 3 1 3 4
M  V30 4 2 4 5
M  V30 5 1 5 6
M  V30 6 2 6 7
M  V30 7 1 6 8
M  V30 8 1 5 9
M  V30 9 1 9 10
M  V30 10 2 10 11
M  V30 11 2 10 12
M  V30 12 1 10 13
M  V30 13 1 7 2
M  V30 14 1 1 14
M  V30 15 1 1 15
M  V30 16 1 3 16
M  V30 17 1 7 17
M  V30 18 1 9 18
M  V30 19 1 13 19
M  V30 20 1 13 20
M  V30 END BOND
M  V30 END CTAB
M  END
