
     RDKit          3D

  0  0  0  0  0  0  0  0  0  0999 V3000
M  V30 BEGIN CTAB
M  V30 COUNTS 16 16 0 0 0
M  V30 BEGIN ATOM
M  V30 1 N 2.82563 -0.0189473 -0.130334 0
M  V30 2 C 1.40463 0.0156272 -0.0587011 0
M  V30 3 C 0.711282 1.14646 0.325511 0
M  V30 4 C -0.668258 1.12605 0.378134 0
M  V30 5 C -1.41125 0.000413101 0.0570041 0
M  V30 6 N -2.83428 -0.0107313 0.114386 0
M  V30 7 C -0.701358 -1.11903 -0.324344 0
M  V30 8 C 0.677711 -1.1241 -0.384935 0
M  V30 9 H 3.32775 0.849931 -0.431533 0
M  V30 10 H 3.40644 -0.84296 0.0939845 0
M  V30 11 H 1.29199 2.01197 0.572016 0
M  V30 12 H -1.22432 2.0012 0.676312 0
M  V30 13 H -3.27993 0.0661835 1.06734 0
M  V30 14 H -3.46067 -0.0871479 -0.691847 0
M  V30 15 H -1.26362 -2.00093 -0.576799 0
M  V30 16 H 1.19824 -2.01398 -0.686191 0
M  V30 END ATOM
M  V30 BEGIN BOND
M  V30 1 1 1 2
M  V30 2 2 2 3
M  V30 3 1 3 4
M  V30 4 2 4 5
M  V30 5 1 5 6
M  V30 6 1 5 7
M  V30 7 2 7 8
M  V30 8 1 8 2
M  V30 9 1 1 9
M  V30 10 1 1 10
M  V30 11 1 3 11
M  V30 12 1 4 12
M  V30 13 1 6 13
M  V30 14 1 6 14
M  V30 15 1 7 15
M  V30 16 1 8 16
M  V30 END BOND
M  V30 END CTAB
M  END
