
     RDKit          3D

  0  0  0  0  0  0  0  0  0  0999 V3000
M  V30 BEGIN CTAB
M  V30 COUNTS 62 62 0 0 0
M  V30 BEGIN ATOM
M  V30 1 N 5.95121 2.50714 -0.121146 0
M  V30 2 C 4.79696 2.39526 -0.948582 0
M  V30 3 C 3.65823 1.55819 -0.437758 0
M  V30 4 N 3.99379 0.215968 -0.242426 0
M  V30 5 C 4.85766 -0.145634 0.807456 0
M  V30 6 C 5.06226 -1.66913 0.876851 0
M  V30 7 N 5.9852 -1.97033 1.98567 0
M  V30 8 C 3.22573 -0.805547 -0.831739 0
M  V30 9 C 1.82264 -1.02479 -0.289901 0
M  V30 10 N 1.07258 0.14708 -0.513349 0
M  V30 11 C -0.282025 0.207757 -0.0186056 0
M  V30 12 C -0.982323 1.18314 -0.982504 0
M  V30 13 C -2.1593 1.87707 -0.420026 0
M  V30 14 C -3.38941 1.72769 -1.32592 0
M  V30 15 C -4.66326 1.57182 -0.536013 0
M  V30 16 C -5.22142 0.171348 -0.710188 0
M  V30 17 C -5.82583 -0.360719 0.557826 0
M  V30 18 C -4.80674 -0.590141 1.63572 0
M  V30 19 C -4.22504 -1.94367 1.70844 0
M  V30 20 C -2.96201 -2.2134 0.989717 0
M  V30 21 C -1.80249 -1.33154 1.29161 0
M  V30 22 C -1.02551 -1.08285 -0.0105441 0
M  V30 23 H 5.87634 3.36703 0.491244 0
M  V30 24 H 6.84242 2.56065 -0.694519 0
M  V30 25 H 5.15713 2.01322 -1.95597 0
M  V30 26 H 4.41467 3.43331 -1.24066 0
M  V30 27 H 3.40925 1.99451 0.572861 0
M  V30 28 H 2.80594 1.75817 -1.14255 0
M  V30 29 H 5.88085 0.244778 0.633577 0
M  V30 30 H 4.55094 0.231826 1.813 0
M  V30 31 H 4.08411 -2.12978 1.05922 0
M  V30 32 H 5.54544 -2.05759 -0.0331623 0
M  V30 33 H 5.97182 -3.00449 2.07726 0
M  V30 34 H 6.95715 -1.66076 1.72315 0
M  V30 35 H 3.79205 -1.75033 -0.888647 0
M  V30 36 H 3.12311 -0.513935 -1.93616 0
M  V30 37 H 1.81533 -1.41809 0.721942 0
M  V30 38 H 1.41036 -1.82895 -0.977525 0
M  V30 39 H 1.03856 0.323134 -1.5657 0
M  V30 40 H -0.303435 0.654309 0.995746 0
M  V30 41 H -0.234625 1.94478 -1.29621 0
M  V30 42 H -1.29475 0.646091 -1.89519 0
M  V30 43 H -2.00737 2.99607 -0.322827 0
M  V30 44 H -2.37993 1.54214 0.601509 0
M  V30 45 H -3.19484 0.754764 -1.86571 0
M  V30 46 H -3.41573 2.57118 -2.02686 0
M  V30 47 H -5.43398 2.25206 -1.0063 0
M  V30 48 H -4.58131 1.89355 0.509548 0
M  V30 49 H -5.91824 0.113871 -1.56901 0
M  V30 50 H -4.36095 -0.47159 -0.964012 0
M  V30 51 H -6.44124 -1.24872 0.387173 0
M  V30 52 H -6.549 0.441802 0.897561 0
M  V30 53 H -5.38146 -0.444632 2.60513 0
M  V30 54 H -4.0984 0.251489 1.61798 0
M  V30 55 H -4.09713 -2.3002 2.77281 0
M  V30 56 H -4.9925 -2.65604 1.27505 0
M  V30 57 H -2.6567 -3.26245 1.2926 0
M  V30 58 H -3.13343 -2.34104 -0.122173 0
M  V30 59 H -2.01959 -0.417906 1.84024 0
M  V30 60 H -1.0468 -1.86464 1.94911 0
M  V30 61 H -0.386462 -1.95735 -0.191388 0
M  V30 62 H -1.82849 -1.08496 -0.807957 0
M  V30 END ATOM
M  V30 BEGIN BOND
M  V30 1 1 1 2
M  V30 2 1 2 3
M  V30 3 1 3 4
M  V30 4 1 4 5
M  V30 5 1 5 6
M  V30 6 1 6 7
M  V30 7 1 4 8
M  V30 8 1 8 9
M  V30 9 1 9 10
M  V30 10 1 10 11
M  V30 11 1 11 12
M  V30 12 1 12 13
M  V30 13 1 13 14
M  V30 14 1 14 15
M  V30 15 1 15 16
M  V30 16 1 16 17
M  V30 17 1 17 18
M  V30 18 1 18 19
M  V30 19 1 19 20
M  V30 20 1 20 21
M  V30 21 1 21 22
M  V30 22 1 22 11
M  V30 23 1 1 23
M  V30 24 1 1 24
M  V30 25 1 2 25
M  V30 26 1 2 26
M  V30 27 1 3 27
M  V30 28 1 3 28
M  V30 29 1 5 29
M  V30 30 1 5 30
M  V30 31 1 6 31
M  V30 32 1 6 32
M  V30 33 1 7 33
M  V30 34 1 7 34
M  V30 35 1 8 35
M  V30 36 1 8 36
M  V30 37 1 9 37
M  V30 38 1 9 38
M  V30 39 1 10 39
M  V30 40 1 11 40
M  V30 41 1 12 41
M  V30 42 1 12 42
M  V30 43 1 13 43
M  V30 44 1 13 44
M  V30 45 1 14 45
M  V30 46 1 14 46
M  V30 47 1 15 47
M  V30 48 1 15 48
M  V30 49 1 16 49
M  V30 50 1 16 50
M  V30 51 1 17 51
M  V30 52 1 17 52
M  V30 53 1 18 53
M  V30 54 1 18 54
M  V30 55 1 19 55
M  V30 56 1 19 56
M  V30 57 1 20 57
M  V30 58 1 20 58
M  V30 59 1 21 59
M  V30 60 1 21 60
M  V30 61 1 22 61
M  V30 62 1 22 62
M  V30 END BOND
M  V30 END CTAB
M  END
