
     RDKit          3D

  0  0  0  0  0  0  0  0  0  0999 V3000
M  V30 BEGIN CTAB
M  V30 COUNTS 32 33 0 0 0
M  V30 BEGIN ATOM
M  V30 1 N -4.77234 -0.97233 1.08324 0
M  V30 2 C -3.77728 -0.343277 0.282876 0
M  V30 3 C -4.07541 0.238044 -0.943357 0
M  V30 4 C -3.0628 0.839551 -1.68418 0
M  V30 5 C -1.76306 0.869705 -1.22218 0
M  V30 6 C -1.45315 0.299576 -0.0125216 0
M  V30 7 C -2.48012 -0.28916 0.698238 0
M  V30 8 C -0.0576822 0.29662 0.550902 0 CFG=1
M  V30 9 O 0.151387 -0.996048 1.01991 0
M  V30 10 C 1.37405 -1.18343 1.60269 0
M  V30 11 C 2.41074 -0.181956 1.28246 0
M  V30 12 N 2.26715 0.525345 0.0662904 0
M  V30 13 C 0.972892 0.543555 -0.523194 0
M  V30 14 S 3.53472 0.157116 -1.0327 0
M  V30 15 O 3.3892 0.854781 -2.33429 0
M  V30 16 O 3.56189 -1.34957 -1.2488 0
M  V30 17 N 5.02719 0.64353 -0.305359 0
M  V30 18 H -5.1732 -0.52815 1.92843 0
M  V30 19 H -5.09923 -1.91851 0.791975 0
M  V30 20 H -5.09312 0.211388 -1.29924 0
M  V30 21 H -3.32187 1.2881 -2.64206 0
M  V30 22 H -0.999386 1.34007 -1.81307 0
M  V30 23 H -2.21178 -0.73319 1.65119 0
M  V30 24 H -0.0147413 1.05929 1.33059 0
M  V30 25 H 1.74194 -2.19584 1.28935 0
M  V30 26 H 1.20509 -1.28443 2.71259 0
M  V30 27 H 2.43092 0.578047 2.11973 0
M  V30 28 H 3.44353 -0.638374 1.31799 0
M  V30 29 H 0.815774 1.58817 -0.925183 0
M  V30 30 H 0.84694 -0.208431 -1.33271 0
M  V30 31 H 5.27321 -0.0679226 0.419996 0
M  V30 32 H 4.90855 1.55773 0.207204 0
M  V30 END ATOM
M  V30 BEGIN BOND
M  V30 1 1 1 2
M  V30 2 2 2 3
M  V30 3 1 3 4
M  V30 4 2 4 5
M  V30 5 1 5 6
M  V30 6 2 6 7
M  V30 7 1 6 8
M  V30 8 1 8 9
M  V30 9 1 9 10
M  V30 10 1 10 11
M  V30 11 1 11 12
M  V30 12 1 12 13
M  V30 13 1 12 14
M  V30 14 2 14 15
M  V30 15 2 14 16
M  V30 16 1 14 17
M  V30 17 1 7 2
M  V30 18 1 13 8
M  V30 19 1 1 18
M  V30 20 1 1 19
M  V30 21 1 3 20
M  V30 22 1 4 21
M  V30 23 1 5 22
M  V30 24 1 7 23
M  V30 25 1 8 24 CFG=1
M  V30 26 1 10 25
M  V30 27 1 10 26
M  V30 28 1 11 27
M  V30 29 1 11 28
M  V30 30 1 13 29
M  V30 31 1 13 30
M  V30 32 1 17 31
M  V30 33 1 17 32
M  V30 END BOND
M  V30 END CTAB
M  END
