
     RDKit          3D

  0  0  0  0  0  0  0  0  0  0999 V3000
M  V30 BEGIN CTAB
M  V30 COUNTS 32 32 0 0 0
M  V30 BEGIN ATOM
M  V30 1 C -2.60982 0.0309755 1.70182 0
M  V30 2 C -2.59818 -0.331463 0.235115 0
M  V30 3 C -2.63703 -1.84083 0.0939598 0
M  V30 4 C -3.8544 0.188587 -0.460167 0
M  V30 5 N -1.41321 0.235989 -0.357501 0
M  V30 6 C -0.148061 -0.130782 0.105157 0
M  V30 7 O -0.0450763 -0.960462 1.04331 0
M  V30 8 C 1.10487 0.399354 -0.442465 0
M  V30 9 C 2.33571 -0.0102678 0.0670197 0
M  V30 10 N 2.32782 -0.952141 1.1269 0
M  V30 11 C 3.54713 0.458115 -0.412635 0
M  V30 12 N 4.75666 -0.00354865 0.154663 0
M  V30 13 C 3.53116 1.37336 -1.44357 0
M  V30 14 C 2.33225 1.80292 -1.97425 0
M  V30 15 C 1.12316 1.31493 -1.47242 0
M  V30 16 H -3.64192 0.243886 2.05652 0
M  V30 17 H -1.91954 0.867275 1.87332 0
M  V30 18 H -2.18429 -0.855412 2.25569 0
M  V30 19 H -3.70335 -2.14229 0.179261 0
M  V30 20 H -2.25181 -2.19519 -0.861089 0
M  V30 21 H -2.09303 -2.34988 0.920994 0
M  V30 22 H -4.22435 1.09451 0.0359313 0
M  V30 23 H -4.63167 -0.577966 -0.47919 0
M  V30 24 H -3.58289 0.388279 -1.53166 0
M  V30 25 H -1.53725 0.930073 -1.14405 0
M  V30 26 H 2.20231 -1.96985 0.965163 0
M  V30 27 H 2.4495 -0.645966 2.11281 0
M  V30 28 H 5.64747 0.297194 -0.274265 0
M  V30 29 H 4.76584 -0.620417 0.969511 0
M  V30 30 H 4.44684 1.77558 -1.86036 0
M  V30 31 H 2.31573 2.52619 -2.7891 0
M  V30 32 H 0.189412 1.65925 -1.89672 0
M  V30 END ATOM
M  V30 BEGIN BOND
M  V30 1 1 1 2
M  V30 2 1 2 3
M  V30 3 1 2 4
M  V30 4 1 2 5
M  V30 5 1 5 6
M  V30 6 2 6 7
M  V30 7 1 6 8
M  V30 8 2 8 9
M  V30 9 1 9 10
M  V30 10 1 9 11
M  V30 11 1 11 12
M  V30 12 2 11 13
M  V30 13 1 13 14
M  V30 14 2 14 15
M  V30 15 1 15 8
M  V30 16 1 1 16
M  V30 17 1 1 17
M  V30 18 1 1 18
M  V30 19 1 3 19
M  V30 20 1 3 20
M  V30 21 1 3 21
M  V30 22 1 4 22
M  V30 23 1 4 23
M  V30 24 1 4 24
M  V30 25 1 5 25
M  V30 26 1 10 26
M  V30 27 1 10 27
M  V30 28 1 12 28
M  V30 29 1 12 29
M  V30 30 1 13 30
M  V30 31 1 14 31
M  V30 32 1 15 32
M  V30 END BOND
M  V30 END CTAB
M  END
