
     RDKit          3D

  0  0  0  0  0  0  0  0  0  0999 V3000
M  V30 BEGIN CTAB
M  V30 COUNTS 46 48 0 0 0
M  V30 BEGIN ATOM
M  V30 1 C -1.05343 -3.9119 -2.23648 0
M  V30 2 C -1.62217 -3.39217 -0.923565 0
M  V30 3 N -1.11393 -2.09024 -0.612143 0
M  V30 4 C 0.00916751 -1.97268 0.108476 0
M  V30 5 O 0.603208 -2.9999 0.50267 0
M  V30 6 C 0.509807 -0.72941 0.415657 0
M  V30 7 C 1.72424 -0.530521 1.19738 0
M  V30 8 O 2.09308 0.644064 1.43152 0
M  V30 9 C 2.53541 -1.64853 1.72315 0
M  V30 10 S 3.93023 -0.993855 2.64562 0
M  V30 11 C 5.03569 -0.139863 1.52531 0
M  V30 12 N 5.04684 1.13236 1.14556 0
M  V30 13 N 5.92106 1.54571 0.336316 0
M  V30 14 C 6.83692 0.708471 -0.14124 0
M  V30 15 S 6.37415 -0.753988 0.649812 0
M  V30 16 N 7.90724 0.956298 -1.05671 0
M  V30 17 C -0.215481 0.36622 -0.0629358 0
M  V30 18 N -1.33989 0.277583 -0.78253 0
M  V30 19 C -1.76056 -0.995322 -1.03979 0
M  V30 20 O -2.80379 -1.13942 -1.71244 0
M  V30 21 C -2.06949 1.43553 -1.24181 0
M  V30 22 C -3.14819 1.92588 -0.396159 0
M  V30 23 C -2.97311 2.80678 0.636419 0
M  V30 24 C -4.04343 3.26023 1.41981 0
M  V30 25 C -5.32904 2.84179 1.18937 0
M  V30 26 C -5.52684 1.96081 0.160122 0
M  V30 27 C -4.46665 1.51254 -0.614948 0
M  V30 28 N 0.352324 1.65671 0.232204 0
M  V30 29 H -1.5107 -3.35301 -3.07349 0
M  V30 30 H 0.0526964 -3.84062 -2.25315 0
M  V30 31 H -1.33749 -4.99415 -2.29692 0
M  V30 32 H -2.73603 -3.41297 -1.05601 0
M  V30 33 H -1.40077 -4.13351 -0.128988 0
M  V30 34 H 2.90123 -2.26202 0.852723 0
M  V30 35 H 1.94176 -2.28695 2.43714 0
M  V30 36 H 8.67595 1.62303 -0.875677 0
M  V30 37 H 7.90382 0.432121 -1.95162 0
M  V30 38 H -1.31722 2.24265 -1.3841 0
M  V30 39 H -2.46662 1.22197 -2.25953 0
M  V30 40 H -1.98434 3.19726 0.873785 0
M  V30 41 H -3.87492 3.95942 2.23386 0
M  V30 42 H -6.1662 3.18858 1.79334 0
M  V30 43 H -6.54802 1.61704 -0.03758 0
M  V30 44 H -4.69817 0.842281 -1.40759 0
M  V30 45 H 0.974906 2.04857 -0.509109 0
M  V30 46 H 0.176736 2.17713 1.09793 0
M  V30 END ATOM
M  V30 BEGIN BOND
M  V30 1 1 1 2
M  V30 2 1 2 3
M  V30 3 1 3 4
M  V30 4 2 4 5
M  V30 5 1 4 6
M  V30 6 1 6 7
M  V30 7 2 7 8
M  V30 8 1 7 9
M  V30 9 1 9 10
M  V30 10 1 10 11
M  V30 11 2 11 12
M  V30 12 1 12 13
M  V30 13 2 13 14
M  V30 14 1 14 15
M  V30 15 1 14 16
M  V30 16 2 6 17
M  V30 17 1 17 18
M  V30 18 1 18 19
M  V30 19 2 19 20
M  V30 20 1 18 21
M  V30 21 1 21 22
M  V30 22 2 22 23
M  V30 23 1 23 24
M  V30 24 2 24 25
M  V30 25 1 25 26
M  V30 26 2 26 27
M  V30 27 1 17 28
M  V30 28 1 19 3
M  V30 29 1 27 22
M  V30 30 1 15 11
M  V30 31 1 1 29
M  V30 32 1 1 30
M  V30 33 1 1 31
M  V30 34 1 2 32
M  V30 35 1 2 33
M  V30 36 1 9 34
M  V30 37 1 9 35
M  V30 38 1 16 36
M  V30 39 1 16 37
M  V30 40 1 21 38
M  V30 41 1 21 39
M  V30 42 1 23 40
M  V30 43 1 24 41
M  V30 44 1 25 42
M  V30 45 1 26 43
M  V30 46 1 27 44
M  V30 47 1 28 45
M  V30 48 1 28 46
M  V30 END BOND
M  V30 END CTAB
M  END
