
     RDKit          3D

  0  0  0  0  0  0  0  0  0  0999 V3000
M  V30 BEGIN CTAB
M  V30 COUNTS 46 48 0 0 0
M  V30 BEGIN ATOM
M  V30 1 C -4.49553 2.2345 -1.10591 0
M  V30 2 C -5.04746 0.846728 -1.06932 0
M  V30 3 C -4.07887 -0.182748 -1.56965 0
M  V30 4 C -2.84058 -0.161069 -0.712464 0
M  V30 5 N -2.77825 0.706004 0.308457 0
M  V30 6 C -1.67917 0.740089 1.08607 0
M  V30 7 N -1.60216 1.66753 2.18501 0
M  V30 8 N -0.686118 -0.0971304 0.808593 0
M  V30 9 C -0.667545 -0.985606 -0.182089 0
M  V30 10 C -1.80586 -1.02612 -0.993337 0
M  V30 11 C 0.445007 -1.88304 -0.447025 0
M  V30 12 O 0.249058 -2.66377 -1.46686 0
M  V30 13 N 1.63827 -1.97519 0.256243 0
M  V30 14 C 2.62483 -2.97396 -0.229311 0
M  V30 15 C 3.92268 -2.30892 -0.538529 0
M  V30 16 C 4.06269 -0.942027 0.0254214 0
M  V30 17 C 3.22651 -0.37376 0.940522 0
M  V30 18 C 2.06643 -1.23749 1.39633 0
M  V30 19 N 3.43579 0.853941 1.3846 0
M  V30 20 C 4.46868 1.62836 0.979576 0
M  V30 21 N 5.31599 1.08983 0.0705512 0
M  V30 22 C 5.13312 -0.155946 -0.40247 0
M  V30 23 O 5.96227 -0.585672 -1.24423 0
M  V30 24 N 4.6744 2.94107 1.46817 0
M  V30 25 C -5.53254 0.473605 0.329468 0
M  V30 26 H -5.18233 2.9392 -1.66087 0
M  V30 27 H -3.50494 2.23731 -1.64707 0
M  V30 28 H -4.36779 2.70425 -0.110725 0
M  V30 29 H -5.94219 0.8185 -1.74969 0
M  V30 30 H -4.51338 -1.18234 -1.49934 0
M  V30 31 H -3.80151 0.0628295 -2.61217 0
M  V30 32 H -2.02132 1.39614 3.07404 0
M  V30 33 H -1.12234 2.5631 2.00864 0
M  V30 34 H -1.87817 -1.70974 -1.81381 0
M  V30 35 H 2.19681 -3.58353 -1.01946 0
M  V30 36 H 2.7766 -3.64124 0.667955 0
M  V30 37 H 4.77385 -2.95191 -0.169431 0
M  V30 38 H 4.05106 -2.28907 -1.64868 0
M  V30 39 H 1.35001 -0.658466 1.95433 0
M  V30 40 H 2.59821 -1.98891 2.08009 0
M  V30 41 H 6.11619 1.70388 -0.236348 0
M  V30 42 H 4.31452 3.22009 2.39321 0
M  V30 43 H 5.19312 3.62449 0.885038 0
M  V30 44 H -5.05644 -0.472982 0.683625 0
M  V30 45 H -6.62223 0.277128 0.330532 0
M  V30 46 H -5.36936 1.30207 1.05364 0
M  V30 END ATOM
M  V30 BEGIN BOND
M  V30 1 1 1 2
M  V30 2 1 2 3
M  V30 3 1 3 4
M  V30 4 2 4 5
M  V30 5 1 5 6
M  V30 6 1 6 7
M  V30 7 2 6 8
M  V30 8 1 8 9
M  V30 9 2 9 10
M  V30 10 1 9 11
M  V30 11 2 11 12
M  V30 12 1 11 13
M  V30 13 1 13 14
M  V30 14 1 14 15
M  V30 15 1 15 16
M  V30 16 2 16 17
M  V30 17 1 17 18
M  V30 18 1 17 19
M  V30 19 2 19 20
M  V30 20 1 20 21
M  V30 21 1 21 22
M  V30 22 2 22 23
M  V30 23 1 20 24
M  V30 24 1 2 25
M  V30 25 1 10 4
M  V30 26 1 18 13
M  V30 27 1 22 16
M  V30 28 1 1 26
M  V30 29 1 1 27
M  V30 30 1 1 28
M  V30 31 1 2 29
M  V30 32 1 3 30
M  V30 33 1 3 31
M  V30 34 1 7 32
M  V30 35 1 7 33
M  V30 36 1 10 34
M  V30 37 1 14 35
M  V30 38 1 14 36
M  V30 39 1 15 37
M  V30 40 1 15 38
M  V30 41 1 18 39
M  V30 42 1 18 40
M  V30 43 1 21 41
M  V30 44 1 24 42
M  V30 45 1 24 43
M  V30 46 1 25 44
M  V30 47 1 25 45
M  V30 48 1 25 46
M  V30 END BOND
M  V30 END CTAB
M  END
