
     RDKit          3D

  0  0  0  0  0  0  0  0  0  0999 V3000
M  V30 BEGIN CTAB
M  V30 COUNTS 29 30 0 0 0
M  V30 BEGIN ATOM
M  V30 1 C 4.12826 -0.405824 -0.724836 0
M  V30 2 C 3.90285 0.247313 0.610831 0
M  V30 3 C 2.59469 0.904347 0.729363 0
M  V30 4 N 2.32401 2.1759 0.414789 0
M  V30 5 N 1.04207 2.38722 0.659959 0
M  V30 6 C 0.457318 1.24488 1.14149 0
M  V30 7 N 1.44957 0.350863 1.17016 0
M  V30 8 N 1.34963 -0.954642 1.59421 0
M  V30 9 S -1.24317 1.04709 1.62755 0
M  V30 10 C -2.29651 0.570786 0.260776 0
M  V30 11 C -2.83028 1.56739 -0.566317 0
M  V30 12 C -3.65064 1.20038 -1.60897 0
M  V30 13 C -3.96606 -0.110356 -1.86908 0
M  V30 14 C -3.4574 -1.103 -1.07523 0
M  V30 15 C -2.62307 -0.731013 -0.0142323 0
M  V30 16 N -2.10158 -1.76679 0.830228 0
M  V30 17 Cl -5.00722 -0.491894 -3.20316 0
M  V30 18 H 3.25473 -0.90269 -1.14147 0
M  V30 19 H 4.50311 0.309548 -1.49087 0
M  V30 20 H 4.93273 -1.15933 -0.597414 0
M  V30 21 H 4.75681 0.963396 0.767568 0
M  V30 22 H 4.04787 -0.521882 1.42512 0
M  V30 23 H 1.43284 -1.28166 2.5726 0
M  V30 24 H 1.17188 -1.70697 0.870291 0
M  V30 25 H -2.56763 2.59034 -0.341496 0
M  V30 26 H -4.0633 1.99458 -2.25124 0
M  V30 27 H -3.67393 -2.16269 -1.2345 0
M  V30 28 H -2.49209 -1.83308 1.78754 0
M  V30 29 H -1.37548 -2.42221 0.520467 0
M  V30 END ATOM
M  V30 BEGIN BOND
M  V30 1 1 1 2
M  V30 2 1 2 3
M  V30 3 2 3 4
M  V30 4 1 4 5
M  V30 5 2 5 6
M  V30 6 1 6 7
M  V30 7 1 7 8
M  V30 8 1 6 9
M  V30 9 1 9 10
M  V30 10 2 10 11
M  V30 11 1 11 12
M  V30 12 2 12 13
M  V30 13 1 13 14
M  V30 14 2 14 15
M  V30 15 1 15 16
M  V30 16 1 13 17
M  V30 17 1 7 3
M  V30 18 1 15 10
M  V30 19 1 1 18
M  V30 20 1 1 19
M  V30 21 1 1 20
M  V30 22 1 2 21
M  V30 23 1 2 22
M  V30 24 1 8 23
M  V30 25 1 8 24
M  V30 26 1 11 25
M  V30 27 1 12 26
M  V30 28 1 14 27
M  V30 29 1 16 28
M  V30 30 1 16 29
M  V30 END BOND
M  V30 END CTAB
M  END
