
     RDKit          3D

  0  0  0  0  0  0  0  0  0  0999 V3000
M  V30 BEGIN CTAB
M  V30 COUNTS 50 52 0 0 0
M  V30 BEGIN ATOM
M  V30 1 N -5.5024 2.68694 -1.1722 0
M  V30 2 C -4.88328 2.84219 0.133809 0
M  V30 3 C -5.2948 1.7821 1.09419 0
M  V30 4 O -5.01384 0.491113 0.759021 0
M  V30 5 C -3.83533 -0.178396 0.558881 0
M  V30 6 C -2.57949 0.349639 0.692139 0
M  V30 7 C -1.38191 -0.333467 0.48413 0
M  V30 8 C -1.48955 -1.63898 0.117835 0
M  V30 9 C -2.73883 -2.2642 -0.0420562 0
M  V30 10 C -3.86417 -1.53308 0.178094 0
M  V30 11 O -5.11681 -2.11089 0.0315914 0
M  V30 12 C -5.2273 -3.4673 -0.348634 0
M  V30 13 C -0.107983 0.323145 0.654294 0
M  V30 14 O -0.258615 1.58936 1.02395 0
M  V30 15 N 1.19325 -0.131673 0.501634 0
M  V30 16 C 1.71061 -1.39622 0.124056 0
M  V30 17 C 3.25985 -1.38817 0.154677 0
M  V30 18 C 3.79529 -0.315503 -0.736192 0
M  V30 19 C 2.99813 0.96736 -0.55402 0
M  V30 20 C 2.28236 0.84609 0.774203 0
M  V30 21 C 5.21026 0.00885659 -0.467362 0
M  V30 22 N 6.22359 -0.0116046 -1.38517 0
M  V30 23 N 7.33666 0.336193 -0.763749 0
M  V30 24 C 7.09677 0.585621 0.529945 0
M  V30 25 N 5.77772 0.377472 0.691414 0
M  V30 26 N 8.00851 0.98345 1.53603 0
M  V30 27 H -5.54896 3.59857 -1.68481 0
M  V30 28 H -6.4608 2.29667 -1.12456 0
M  V30 29 H -5.28004 3.8251 0.53336 0
M  V30 30 H -3.81026 2.98533 0.00675934 0
M  V30 31 H -6.41357 1.86157 1.23904 0
M  V30 32 H -4.79629 2.02712 2.08714 0
M  V30 33 H -2.54258 1.38969 1.00436 0
M  V30 34 H -0.667008 -2.27937 -0.0719486 0
M  V30 35 H -2.80896 -3.30953 -0.335275 0
M  V30 36 H -4.73278 -4.14416 0.399664 0
M  V30 37 H -4.65881 -3.56514 -1.31523 0
M  V30 38 H -6.30116 -3.72275 -0.48231 0
M  V30 39 H 1.46773 -2.23896 0.827736 0
M  V30 40 H 1.41232 -1.7099 -0.898666 0
M  V30 41 H 3.53246 -2.37285 -0.322777 0
M  V30 42 H 3.64301 -1.41854 1.16585 0
M  V30 43 H 3.6974 -0.59563 -1.82608 0
M  V30 44 H 3.65171 1.85912 -0.591905 0
M  V30 45 H 2.24841 1.06857 -1.36528 0
M  V30 46 H 2.88324 0.415734 1.57459 0
M  V30 47 H 1.85501 1.82698 1.07251 0
M  V30 48 H 5.2719 0.487975 1.59204 0
M  V30 49 H 7.97852 0.656382 2.51657 0
M  V30 50 H 8.78081 1.65799 1.29852 0
M  V30 END ATOM
M  V30 BEGIN BOND
M  V30 1 1 1 2
M  V30 2 1 2 3
M  V30 3 1 3 4
M  V30 4 1 4 5
M  V30 5 2 5 6
M  V30 6 1 6 7
M  V30 7 2 7 8
M  V30 8 1 8 9
M  V30 9 2 9 10
M  V30 10 1 10 11
M  V30 11 1 11 12
M  V30 12 1 7 13
M  V30 13 2 13 14
M  V30 14 1 13 15
M  V30 15 1 15 16
M  V30 16 1 16 17
M  V30 17 1 17 18
M  V30 18 1 18 19
M  V30 19 1 19 20
M  V30 20 1 18 21
M  V30 21 2 21 22
M  V30 22 1 22 23
M  V30 23 2 23 24
M  V30 24 1 24 25
M  V30 25 1 24 26
M  V30 26 1 10 5
M  V30 27 1 20 15
M  V30 28 1 25 21
M  V30 29 1 1 27
M  V30 30 1 1 28
M  V30 31 1 2 29
M  V30 32 1 2 30
M  V30 33 1 3 31
M  V30 34 1 3 32
M  V30 35 1 6 33
M  V30 36 1 8 34
M  V30 37 1 9 35
M  V30 38 1 12 36
M  V30 39 1 12 37
M  V30 40 1 12 38
M  V30 41 1 16 39
M  V30 42 1 16 40
M  V30 43 1 17 41
M  V30 44 1 17 42
M  V30 45 1 18 43
M  V30 46 1 19 44
M  V30 47 1 19 45
M  V30 48 1 20 46
M  V30 49 1 20 47
M  V30 50 1 25 48
M  V30 51 1 26 49
M  V30 52 1 26 50
M  V30 END BOND
M  V30 END CTAB
M  END
