
     RDKit          3D

  0  0  0  0  0  0  0  0  0  0999 V3000
M  V30 BEGIN CTAB
M  V30 COUNTS 20 20 0 0 0
M  V30 BEGIN ATOM
M  V30 1 Cl -3.39372 1.10182 2.31821 0
M  V30 2 C -2.06152 0.642447 1.25355 0
M  V30 3 C -1.20379 1.57909 0.72049 0
M  V30 4 C -0.157738 1.26095 -0.109848 0
M  V30 5 N 0.69228 2.26615 -0.643586 0
M  V30 6 C 0.069187 -0.0591102 -0.443825 0
M  V30 7 C -0.767949 -1.01994 0.0696368 0
M  V30 8 C -1.82312 -0.672194 0.910625 0
M  V30 9 N -0.566338 -2.37674 -0.272586 0
M  V30 10 O 1.10923 -0.401886 -1.27177 0
M  V30 11 C 2.3734 -0.682285 -0.724415 0
M  V30 12 F 2.304 -1.74178 0.149889 0
M  V30 13 F 3.30354 -0.979145 -1.71616 0
M  V30 14 F 2.9147 0.366838 -0.00310635 0
M  V30 15 H -1.36024 2.61779 0.966994 0
M  V30 16 H 1.11755 2.97077 -0.00715385 0
M  V30 17 H 0.907405 2.32738 -1.64401 0
M  V30 18 H -2.46046 -1.45602 1.29563 0
M  V30 19 H -0.715227 -2.64732 -1.26454 0
M  V30 20 H -0.281181 -3.09681 0.41597 0
M  V30 END ATOM
M  V30 BEGIN BOND
M  V30 1 1 1 2
M  V30 2 2 2 3
M  V30 3 1 3 4
M  V30 4 1 4 5
M  V30 5 2 4 6
M  V30 6 1 6 7
M  V30 7 2 7 8
M  V30 8 1 7 9
M  V30 9 1 6 10
M  V30 10 1 10 11
M  V30 11 1 11 12
M  V30 12 1 11 13
M  V30 13 1 11 14
M  V30 14 1 8 2
M  V30 15 1 3 15
M  V30 16 1 5 16
M  V30 17 1 5 17
M  V30 18 1 8 18
M  V30 19 1 9 19
M  V30 20 1 9 20
M  V30 END BOND
M  V30 END CTAB
M  END
