
     RDKit          3D

  0  0  0  0  0  0  0  0  0  0999 V3000
M  V30 BEGIN CTAB
M  V30 COUNTS 23 23 0 0 0
M  V30 BEGIN ATOM
M  V30 1 N 2.99601 1.58377 0.323584 0
M  V30 2 C 2.69792 0.201505 0.261807 0
M  V30 3 S 3.90896 -0.870407 0.512802 0
M  V30 4 N 1.3943 -0.284468 -0.00843021 0
M  V30 5 C 0.970872 -1.64512 -0.0961695 0
M  V30 6 C -0.509522 -1.66207 0.257031 0
M  V30 7 C -0.95287 -0.242035 0.271657 0
M  V30 8 C 0.213282 0.53228 -0.253339 0
M  V30 9 S -2.41273 0.0462863 -0.68718 0
M  V30 10 O -3.54919 -0.808901 -0.266621 0
M  V30 11 O -2.11918 -0.265002 -2.14688 0
M  V30 12 N -2.89989 1.68849 -0.63491 0
M  V30 13 H 3.42409 2.0385 -0.509431 0
M  V30 14 H 2.79814 2.14699 1.17448 0
M  V30 15 H 1.13012 -2.07486 -1.12072 0
M  V30 16 H 1.56936 -2.27518 0.606073 0
M  V30 17 H -1.07021 -2.30057 -0.449838 0
M  V30 18 H -0.581145 -2.12584 1.26617 0
M  V30 19 H -1.19394 0.0437549 1.32421 0
M  V30 20 H 0.281125 1.52086 0.266159 0
M  V30 21 H 0.120598 0.662201 -1.3559 0
M  V30 22 H -2.29936 2.27008 -0.0144865 0
M  V30 23 H -3.91674 1.81974 -0.467893 0
M  V30 END ATOM
M  V30 BEGIN BOND
M  V30 1 1 1 2
M  V30 2 2 2 3
M  V30 3 1 2 4
M  V30 4 1 4 5
M  V30 5 1 5 6
M  V30 6 1 6 7
M  V30 7 1 7 8
M  V30 8 1 7 9
M  V30 9 2 9 10
M  V30 10 2 9 11
M  V30 11 1 9 12
M  V30 12 1 8 4
M  V30 13 1 1 13
M  V30 14 1 1 14
M  V30 15 1 5 15
M  V30 16 1 5 16
M  V30 17 1 6 17
M  V30 18 1 6 18
M  V30 19 1 7 19
M  V30 20 1 8 20
M  V30 21 1 8 21
M  V30 22 1 12 22
M  V30 23 1 12 23
M  V30 END BOND
M  V30 END CTAB
M  END
