
     RDKit          3D

  0  0  0  0  0  0  0  0  0  0999 V3000
M  V30 BEGIN CTAB
M  V30 COUNTS 35 35 0 0 0
M  V30 BEGIN ATOM
M  V30 1 N 3.95486 0.700144 -0.964595 0
M  V30 2 C 4.00921 -0.728814 -0.775709 0
M  V30 3 C 3.67765 -1.11908 0.652172 0
M  V30 4 C 2.25423 -0.625353 0.956941 0
M  V30 5 N 1.28739 -1.12794 0.168144 0
M  V30 6 C 0.31559 -1.63348 -0.624641 0
M  V30 7 O -0.0607597 -2.83626 -0.788318 0
M  V30 8 C -0.427171 -0.56948 -1.43215 0
M  V30 9 C -1.42404 0.112206 -0.541482 0
M  V30 10 C -2.231 1.12205 -0.992738 0
M  V30 11 C -3.17948 1.78115 -0.242878 0
M  V30 12 C -3.34792 1.39311 1.10745 0
M  V30 13 C -2.55849 0.393452 1.57414 0
M  V30 14 C -1.60322 -0.246994 0.768713 0
M  V30 15 C -4.37698 2.1322 1.88593 0
M  V30 16 N -1.0749 -1.21666 -2.53748 0
M  V30 17 F 3.69628 -2.49591 0.764059 0
M  V30 18 F 4.53902 -0.590576 1.55315 0
M  V30 19 H 4.30394 1.23219 -0.150412 0
M  V30 20 H 4.34372 0.983489 -1.87267 0
M  V30 21 H 3.22355 -1.14888 -1.47186 0
M  V30 22 H 4.95604 -1.13531 -1.14147 0
M  V30 23 H 2.35968 0.50876 0.761732 0
M  V30 24 H 2.09603 -0.664571 2.08557 0
M  V30 25 H 1.56858 -2.37864 0.637478 0
M  V30 26 H 0.336359 0.123444 -1.82869 0
M  V30 27 H -2.07807 1.4067 -2.05015 0
M  V30 28 H -3.80425 2.57354 -0.625334 0
M  V30 29 H -2.67379 0.0855781 2.59942 0
M  V30 30 H -1.00173 -1.04485 1.20136 0
M  V30 31 H -3.93538 2.91278 2.53481 0
M  V30 32 H -5.01981 1.42977 2.43287 0
M  V30 33 H -5.06464 2.70137 1.20262 0
M  V30 34 H -0.982581 -0.587981 -3.37218 0
M  V30 35 H -2.07789 -1.44117 -2.32179 0
M  V30 END ATOM
M  V30 BEGIN BOND
M  V30 1 1 1 2
M  V30 2 1 2 3
M  V30 3 1 3 4
M  V30 4 1 4 5
M  V30 5 1 5 6
M  V30 6 2 6 7
M  V30 7 1 6 8
M  V30 8 1 8 9
M  V30 9 2 9 10
M  V30 10 1 10 11
M  V30 11 2 11 12
M  V30 12 1 12 13
M  V30 13 2 13 14
M  V30 14 1 12 15
M  V30 15 1 8 16
M  V30 16 1 3 17
M  V30 17 1 3 18
M  V30 18 1 14 9
M  V30 19 1 1 19
M  V30 20 1 1 20
M  V30 21 1 2 21
M  V30 22 1 2 22
M  V30 23 1 4 23
M  V30 24 1 4 24
M  V30 25 1 5 25
M  V30 26 1 8 26
M  V30 27 1 10 27
M  V30 28 1 11 28
M  V30 29 1 13 29
M  V30 30 1 14 30
M  V30 31 1 15 31
M  V30 32 1 15 32
M  V30 33 1 15 33
M  V30 34 1 16 34
M  V30 35 1 16 35
M  V30 END BOND
M  V30 END CTAB
M  END
