
     RDKit          3D

  0  0  0  0  0  0  0  0  0  0999 V3000
M  V30 BEGIN CTAB
M  V30 COUNTS 38 40 0 0 0
M  V30 BEGIN ATOM
M  V30 1 F -6.53938 0.646 0.992536 0
M  V30 2 C -5.28323 0.36598 0.561526 0
M  V30 3 C -4.18686 0.447725 1.36758 0
M  V30 4 C -2.90317 0.153259 0.896988 0
M  V30 5 C -2.7492 -0.226446 -0.407888 0
M  V30 6 C -3.87259 -0.302343 -1.20526 0
M  V30 7 C -5.14344 -0.0138548 -0.75034 0
M  V30 8 C -1.44321 -0.553958 -0.990418 0
M  V30 9 C -1.52024 -0.543059 -2.53009 0
M  V30 10 N -0.899771 -1.81088 -0.534198 0
M  V30 11 C -0.107768 -1.47339 0.608504 0
M  V30 12 O 0.251324 -2.23479 1.54658 0
M  V30 13 N 0.23207 -0.0921034 0.530939 0
M  V30 14 C -0.359209 0.389839 -0.659093 0
M  V30 15 O -0.0245238 1.39903 -1.28337 0
M  V30 16 C 1.03037 0.685301 1.48108 0
M  V30 17 C 2.45027 0.592591 1.05221 0
M  V30 18 N 2.98514 1.48171 0.199577 0
M  V30 19 C 4.26673 1.42488 -0.207628 0
M  V30 20 N 4.82022 2.37915 -1.11552 0
M  V30 21 N 5.03133 0.414513 0.279721 0
M  V30 22 C 4.54547 -0.48325 1.12163 0
M  V30 23 N 3.24323 -0.394664 1.51232 0
M  V30 24 N 5.28465 -1.56686 1.67268 0
M  V30 25 H -4.32808 0.753352 2.4098 0
M  V30 26 H -2.0845 0.239272 1.59129 0
M  V30 27 H -3.81619 -0.60127 -2.26268 0
M  V30 28 H -6.01392 -0.0839653 -1.40919 0
M  V30 29 H -2.05737 -1.43856 -2.87654 0
M  V30 30 H -2.05003 0.409857 -2.77281 0
M  V30 31 H -0.47577 -0.499133 -2.89226 0
M  V30 32 H -1.00486 -2.76993 -0.887192 0
M  V30 33 H 0.66983 1.72886 1.55362 0
M  V30 34 H 0.860559 0.212543 2.46934 0
M  V30 35 H 5.42241 3.13503 -0.722641 0
M  V30 36 H 4.63279 2.32544 -2.12563 0
M  V30 37 H 5.15522 -2.55416 1.3655 0
M  V30 38 H 5.98168 -1.32052 2.41933 0
M  V30 END ATOM
M  V30 BEGIN BOND
M  V30 1 1 1 2
M  V30 2 2 2 3
M  V30 3 1 3 4
M  V30 4 2 4 5
M  V30 5 1 5 6
M  V30 6 2 6 7
M  V30 7 1 5 8
M  V30 8 1 8 9
M  V30 9 1 8 10
M  V30 10 1 10 11
M  V30 11 2 11 12
M  V30 12 1 11 13
M  V30 13 1 13 14
M  V30 14 2 14 15
M  V30 15 1 13 16
M  V30 16 1 16 17
M  V30 17 2 17 18
M  V30 18 1 18 19
M  V30 19 1 19 20
M  V30 20 2 19 21
M  V30 21 1 21 22
M  V30 22 2 22 23
M  V30 23 1 22 24
M  V30 24 1 7 2
M  V30 25 1 14 8
M  V30 26 1 23 17
M  V30 27 1 3 25
M  V30 28 1 4 26
M  V30 29 1 6 27
M  V30 30 1 7 28
M  V30 31 1 9 29
M  V30 32 1 9 30
M  V30 33 1 9 31
M  V30 34 1 10 32
M  V30 35 1 16 33
M  V30 36 1 16 34
M  V30 37 1 20 35
M  V30 38 1 20 36
M  V30 39 1 24 37
M  V30 40 1 24 38
M  V30 END BOND
M  V30 END CTAB
M  END
