
     RDKit          3D

  0  0  0  0  0  0  0  0  0  0999 V3000
M  V30 BEGIN CTAB
M  V30 COUNTS 59 62 0 0 0
M  V30 BEGIN ATOM
M  V30 1 N -5.34363 3.09079 -1.52836 0
M  V30 2 C -5.90987 2.7518 -0.274231 0
M  V30 3 N -6.87018 3.45177 0.172487 0
M  V30 4 C -5.38976 1.62911 0.464605 0
M  V30 5 C -4.32858 0.901367 -0.0919307 0
M  V30 6 C -3.78228 -0.179781 0.555199 0
M  V30 7 O -2.75256 -0.86078 -0.0177118 0
M  V30 8 C -2.79903 -1.92363 -0.857937 0
M  V30 9 C -4.05992 -2.43389 -1.21998 0
M  V30 10 C -4.21107 -3.50628 -2.06425 0
M  V30 11 C -3.10242 -4.1274 -2.59319 0
M  V30 12 C -1.86673 -3.64617 -2.25331 0
M  V30 13 C -1.70663 -2.53978 -1.38239 0
M  V30 14 C -0.354698 -2.13711 -1.10947 0
M  V30 15 O 0.618125 -2.78809 -1.6569 0
M  V30 16 N 0.0467916 -1.08408 -0.290341 0
M  V30 17 C 1.39865 -0.681391 -0.0317979 0
M  V30 18 C 2.46558 -0.89212 -0.86577 0
M  V30 19 C 3.75557 -0.48822 -0.5081 0
M  V30 20 C 3.98413 0.132495 0.692256 0
M  V30 21 C 2.93055 0.351047 1.53721 0
M  V30 22 C 1.65966 -0.049006 1.18065 0
M  V30 23 C 5.3565 0.493173 1.01843 0
M  V30 24 C 6.26423 -0.488366 1.42607 0
M  V30 25 C 7.55737 -0.186509 1.76267 0
M  V30 26 C 7.94462 1.13159 1.68711 0
M  V30 27 C 7.07559 2.11124 1.29068 0
M  V30 28 C 5.7693 1.79913 0.951265 0
M  V30 29 S 4.76315 3.12538 0.434237 0
M  V30 30 N 5.68955 4.61254 0.41252 0
M  V30 31 O 3.55386 3.33056 1.27185 0
M  V30 32 O 4.33824 2.87415 -0.986436 0
M  V30 33 N -3.27955 -5.24277 -3.47059 0 CHG=1
M  V30 34 O -4.51758 -5.69189 -3.78479 0 CHG=-1
M  V30 35 O -2.25819 -5.78556 -3.93474 0
M  V30 36 C -4.32446 -0.527112 1.78981 0
M  V30 37 C -5.36217 0.17468 2.34708 0
M  V30 38 C -5.90528 1.26385 1.68491 0
M  V30 39 H -5.09047 4.08937 -1.76813 0
M  V30 40 H -5.14764 2.37869 -2.27668 0
M  V30 41 H -7.4057 3.37724 1.03419 0
M  V30 42 H -3.91955 1.1989 -1.07024 0
M  V30 43 H -4.92086 -1.94689 -0.805471 0
M  V30 44 H -5.20399 -3.87746 -2.32511 0
M  V30 45 H -1.005 -4.14811 -2.67949 0
M  V30 46 H -0.669852 -0.495141 0.201729 0
M  V30 47 H 2.37087 -1.35425 -1.83053 0
M  V30 48 H 4.56291 -0.686461 -1.21785 0
M  V30 49 H 3.11353 0.823886 2.48402 0
M  V30 50 H 0.832646 0.121561 1.84344 0
M  V30 51 H 5.89181 -1.52009 1.46484 0
M  V30 52 H 8.26598 -0.963711 2.08245 0
M  V30 53 H 8.97612 1.34672 1.95959 0
M  V30 54 H 7.45472 3.12505 1.25646 0
M  V30 55 H 5.17114 5.35198 -0.0887049 0
M  V30 56 H 6.02944 4.86357 1.35593 0
M  V30 57 H -3.86352 -1.38754 2.26723 0
M  V30 58 H -5.77086 -0.100508 3.2957 0
M  V30 59 H -6.71855 1.83847 2.08955 0
M  V30 END ATOM
M  V30 BEGIN BOND
M  V30 1 1 1 2
M  V30 2 2 2 3 CFG=2
M  V30 3 1 2 4
M  V30 4 2 4 5
M  V30 5 1 5 6
M  V30 6 1 6 7
M  V30 7 1 7 8
M  V30 8 2 8 9
M  V30 9 1 9 10
M  V30 10 2 10 11
M  V30 11 1 11 12
M  V30 12 2 12 13
M  V30 13 1 13 14
M  V30 14 2 14 15
M  V30 15 1 14 16
M  V30 16 1 16 17
M  V30 17 2 17 18
M  V30 18 1 18 19
M  V30 19 2 19 20
M  V30 20 1 20 21
M  V30 21 2 21 22
M  V30 22 1 20 23
M  V30 23 2 23 24
M  V30 24 1 24 25
M  V30 25 2 25 26
M  V30 26 1 26 27
M  V30 27 2 27 28
M  V30 28 1 28 29
M  V30 29 1 29 30
M  V30 30 2 29 31
M  V30 31 2 29 32
M  V30 32 1 11 33
M  V30 33 1 33 34
M  V30 34 2 33 35
M  V30 35 2 6 36
M  V30 36 1 36 37
M  V30 37 2 37 38
M  V30 38 1 38 4
M  V30 39 1 13 8
M  V30 40 1 22 17
M  V30 41 1 28 23
M  V30 42 1 1 39
M  V30 43 1 1 40
M  V30 44 1 3 41
M  V30 45 1 5 42
M  V30 46 1 9 43
M  V30 47 1 10 44
M  V30 48 1 12 45
M  V30 49 1 16 46
M  V30 50 1 18 47
M  V30 51 1 19 48
M  V30 52 1 21 49
M  V30 53 1 22 50
M  V30 54 1 24 51
M  V30 55 1 25 52
M  V30 56 1 26 53
M  V30 57 1 27 54
M  V30 58 1 30 55
M  V30 59 1 30 56
M  V30 60 1 36 57
M  V30 61 1 37 58
M  V30 62 1 38 59
M  V30 END BOND
M  V30 END CTAB
M  END
