
     RDKit          3D

  0  0  0  0  0  0  0  0  0  0999 V3000
M  V30 BEGIN CTAB
M  V30 COUNTS 30 30 0 0 0
M  V30 BEGIN ATOM
M  V30 1 N -5.43547 -0.916218 -0.0244058 0
M  V30 2 C -4.93773 -0.0774836 -1.05096 0
M  V30 3 N -5.76173 0.407716 -1.93092 0
M  V30 4 N -3.54779 0.211875 -1.09164 0
M  V30 5 C -2.6745 -0.329051 -0.122249 0
M  V30 6 O -3.13434 -1.06577 0.773642 0
M  V30 7 C -1.24935 -0.0282242 -0.169669 0
M  V30 8 C -0.394247 -0.557351 0.778828 0
M  V30 9 N -0.949817 -1.39324 1.78674 0
M  V30 10 N 0.937279 -0.27233 0.729025 0
M  V30 11 C 1.45302 0.511307 -0.217153 0
M  V30 12 N 2.84078 0.805046 -0.264465 0
M  V30 13 C 3.77667 0.277683 0.702387 0
M  V30 14 C 5.16256 0.739213 0.423773 0
M  V30 15 C 6.13813 -0.125455 0.173085 0
M  V30 16 C 0.609282 1.04018 -1.16238 0
M  V30 17 Cl 1.2407 2.06839 -2.41551 0
M  V30 18 N -0.727777 0.762553 -1.12417 0
M  V30 19 H -5.29904 -1.94298 -0.109775 0
M  V30 20 H -5.91934 -0.488967 0.779679 0
M  V30 21 H -5.48048 1.0209 -2.70268 0
M  V30 22 H -3.20471 0.840337 -1.86853 0
M  V30 23 H -1.48597 -1.02575 2.60593 0
M  V30 24 H -0.841585 -2.43049 1.74726 0
M  V30 25 H 3.22654 1.42126 -1.01357 0
M  V30 26 H 3.48217 0.529268 1.74671 0
M  V30 27 H 3.75779 -0.837329 0.641244 0
M  V30 28 H 5.32788 1.81043 0.437159 0
M  V30 29 H 5.95449 -1.18759 0.16409 0
M  V30 30 H 7.13657 0.23208 -0.026503 0
M  V30 END ATOM
M  V30 BEGIN BOND
M  V30 1 1 1 2
M  V30 2 2 2 3 CFG=2
M  V30 3 1 2 4
M  V30 4 1 4 5
M  V30 5 2 5 6
M  V30 6 1 5 7
M  V30 7 2 7 8
M  V30 8 1 8 9
M  V30 9 1 8 10
M  V30 10 2 10 11
M  V30 11 1 11 12
M  V30 12 1 12 13
M  V30 13 1 13 14
M  V30 14 2 14 15 CFG=2
M  V30 15 1 11 16
M  V30 16 1 16 17
M  V30 17 2 16 18
M  V30 18 1 18 7
M  V30 19 1 1 19
M  V30 20 1 1 20
M  V30 21 1 3 21
M  V30 22 1 4 22
M  V30 23 1 9 23
M  V30 24 1 9 24
M  V30 25 1 12 25
M  V30 26 1 13 26
M  V30 27 1 13 27
M  V30 28 1 14 28
M  V30 29 1 15 29
M  V30 30 1 15 30
M  V30 END BOND
M  V30 END CTAB
M  END
