
     RDKit          3D

  0  0  0  0  0  0  0  0  0  0999 V3000
M  V30 BEGIN CTAB
M  V30 COUNTS 17 17 0 0 0
M  V30 BEGIN ATOM
M  V30 1 N -2.06507 0.998578 -0.859422 0
M  V30 2 C -2.2577 0.321004 0.413628 0
M  V30 3 C -1.53943 -1.00323 0.325112 0
M  V30 4 C -0.0865199 -0.690811 0.0676888 0
M  V30 5 N 0.52018 -0.550166 -1.10699 0
M  V30 6 N 1.75195 -0.28728 -1.15325 0
M  V30 7 C 2.44495 -0.150541 -0.0259529 0
M  V30 8 N 3.84739 0.14671 0.134404 0
M  V30 9 S 1.21814 -0.42319 1.13853 0
M  V30 10 H -2.77239 1.77323 -0.981657 0
M  V30 11 H -1.11942 1.43749 -0.821623 0
M  V30 12 H -3.32579 0.204076 0.671558 0
M  V30 13 H -1.76761 0.960403 1.19439 0
M  V30 14 H -1.87752 -1.5667 -0.558944 0
M  V30 15 H -1.66255 -1.64415 1.1979 0
M  V30 16 H 4.51776 -0.514995 -0.273786 0
M  V30 17 H 4.17363 0.989562 0.638409 0
M  V30 END ATOM
M  V30 BEGIN BOND
M  V30 1 1 1 2
M  V30 2 1 2 3
M  V30 3 1 3 4
M  V30 4 2 4 5
M  V30 5 1 5 6
M  V30 6 2 6 7
M  V30 7 1 7 8
M  V30 8 1 7 9
M  V30 9 1 9 4
M  V30 10 1 1 10
M  V30 11 1 1 11
M  V30 12 1 2 12
M  V30 13 1 2 13
M  V30 14 1 3 14
M  V30 15 1 3 15
M  V30 16 1 8 16
M  V30 17 1 8 17
M  V30 END BOND
M  V30 END CTAB
M  END
