
     RDKit          3D

  0  0  0  0  0  0  0  0  0  0999 V3000
M  V30 BEGIN CTAB
M  V30 COUNTS 53 56 0 0 0
M  V30 BEGIN ATOM
M  V30 1 N -3.78675 -0.719963 3.18916 0
M  V30 2 C -3.18582 0.0338742 2.15954 0
M  V30 3 C -2.06082 0.781194 2.34999 0
M  V30 4 C -1.48406 1.51335 1.34196 0
M  V30 5 C -2.09313 1.46501 0.107918 0
M  V30 6 C -3.24822 0.711981 -0.135363 0
M  V30 7 C -3.78725 0.00181489 0.893418 0
M  V30 8 N -4.92737 -0.81143 0.704115 0
M  V30 9 C -5.7683 -0.772039 -0.424988 0
M  V30 10 C -6.25686 -1.98735 -0.920891 0
M  V30 11 C -7.11675 -1.98494 -1.9814 0
M  V30 12 C -7.51135 -0.820791 -2.57003 0
M  V30 13 C -7.02921 0.360808 -2.07858 0
M  V30 14 C -6.16174 0.408168 -1.01258 0
M  V30 15 S -0.0542626 2.48622 1.513 0
M  V30 16 O -0.206011 3.69221 0.625083 0
M  V30 17 O -0.0532797 3.02031 2.93844 0
M  V30 18 C 1.40673 1.60219 1.18061 0
M  V30 19 C 2.07132 0.936011 2.18706 0
M  V30 20 C 3.2312 0.226932 1.95752 0
M  V30 21 N 3.91945 -0.460644 2.99692 0
M  V30 22 C 3.79778 0.146603 0.680297 0
M  V30 23 N 4.95304 -0.60897 0.469499 0
M  V30 24 C 5.78049 -0.685423 -0.654419 0
M  V30 25 C 6.37468 -1.88518 -1.01195 0
M  V30 26 C 7.22778 -1.97928 -2.08868 0
M  V30 27 C 7.52083 -0.874226 -2.85204 0
M  V30 28 C 6.9434 0.32761 -2.51621 0
M  V30 29 C 6.0803 0.398478 -1.41774 0
M  V30 30 C 3.14451 0.800552 -0.310415 0
M  V30 31 C 1.96069 1.52483 -0.075905 0
M  V30 32 H -3.84093 -1.75579 3.09157 0
M  V30 33 H -4.17232 -0.245579 4.0383 0
M  V30 34 H -1.59403 0.807368 3.32852 0
M  V30 35 H -1.7034 2.01485 -0.747596 0
M  V30 36 H -3.64425 0.717791 -1.15898 0
M  V30 37 H -5.15351 -1.50347 1.48001 0
M  V30 38 H -5.93603 -2.92481 -0.44307 0
M  V30 39 H -7.49193 -2.93062 -2.36114 0
M  V30 40 H -8.19531 -0.806018 -3.41502 0
M  V30 41 H -7.31725 1.32523 -2.51829 0
M  V30 42 H -5.81687 1.37032 -0.650414 0
M  V30 43 H 1.67062 0.969402 3.19276 0
M  V30 44 H 3.84881 -1.48997 3.1537 0
M  V30 45 H 4.53165 0.0959601 3.6417 0
M  V30 46 H 5.29467 -1.25058 1.28134 0
M  V30 47 H 6.14123 -2.7704 -0.402147 0
M  V30 48 H 7.68103 -2.91391 -2.35465 0
M  V30 49 H 8.20602 -0.951259 -3.71695 0
M  V30 50 H 7.17551 1.19501 -3.11804 0
M  V30 51 H 5.68454 1.37637 -1.20631 0
M  V30 52 H 3.48388 0.785696 -1.34945 0
M  V30 53 H 1.46688 2.0365 -0.89702 0
M  V30 END ATOM
M  V30 BEGIN BOND
M  V30 1 1 1 2
M  V30 2 2 2 3
M  V30 3 1 3 4
M  V30 4 2 4 5
M  V30 5 1 5 6
M  V30 6 2 6 7
M  V30 7 1 7 8
M  V30 8 1 8 9
M  V30 9 2 9 10
M  V30 10 1 10 11
M  V30 11 2 11 12
M  V30 12 1 12 13
M  V30 13 2 13 14
M  V30 14 1 4 15
M  V30 15 2 15 16
M  V30 16 2 15 17
M  V30 17 1 15 18
M  V30 18 2 18 19
M  V30 19 1 19 20
M  V30 20 1 20 21
M  V30 21 2 20 22
M  V30 22 1 22 23
M  V30 23 1 23 24
M  V30 24 2 24 25
M  V30 25 1 25 26
M  V30 26 2 26 27
M  V30 27 1 27 28
M  V30 28 2 28 29
M  V30 29 1 22 30
M  V30 30 2 30 31
M  V30 31 1 7 2
M  V30 32 1 14 9
M  V30 33 1 31 18
M  V30 34 1 29 24
M  V30 35 1 1 32
M  V30 36 1 1 33
M  V30 37 1 3 34
M  V30 38 1 5 35
M  V30 39 1 6 36
M  V30 40 1 8 37
M  V30 41 1 10 38
M  V30 42 1 11 39
M  V30 43 1 12 40
M  V30 44 1 13 41
M  V30 45 1 14 42
M  V30 46 1 19 43
M  V30 47 1 21 44
M  V30 48 1 21 45
M  V30 49 1 23 46
M  V30 50 1 25 47
M  V30 51 1 26 48
M  V30 52 1 27 49
M  V30 53 1 28 50
M  V30 54 1 29 51
M  V30 55 1 30 52
M  V30 56 1 31 53
M  V30 END BOND
M  V30 END CTAB
M  END
