
     RDKit          3D

  0  0  0  0  0  0  0  0  0  0999 V3000
M  V30 BEGIN CTAB
M  V30 COUNTS 28 29 0 0 0
M  V30 BEGIN ATOM
M  V30 1 N 4.35837 -0.779307 0.85939 0
M  V30 2 C 3.10634 -0.525402 0.220917 0
M  V30 3 C 2.35613 -1.54535 -0.327048 0
M  V30 4 C 1.14194 -1.3261 -0.950026 0
M  V30 5 C 0.628619 -0.0450787 -1.04571 0
M  V30 6 C 1.38328 0.971045 -0.495884 0
M  V30 7 C 2.59324 0.751444 0.124767 0
M  V30 8 N 3.3585 1.81803 0.687445 0
M  V30 9 S -0.926303 0.27512 -1.83784 0
M  V30 10 O -1.08507 -0.731034 -2.96579 0
M  V30 11 C -2.26273 0.189139 -0.685132 0
M  V30 12 C -2.63723 1.32 -0.0282803 0
M  V30 13 C -3.68315 1.25412 0.874341 0
M  V30 14 C -4.34658 0.0498104 1.11088 0
M  V30 15 C -3.9384 -1.07627 0.42574 0
M  V30 16 C -2.88984 -1.02009 -0.482013 0
M  V30 17 H 4.4779 -1.64342 1.43452 0
M  V30 18 H 5.17813 -0.135093 0.78126 0
M  V30 19 H 2.76151 -2.55446 -0.25114 0
M  V30 20 H 0.568824 -2.15118 -1.37512 0
M  V30 21 H 1.01432 1.98532 -0.551466 0
M  V30 22 H 2.86608 2.69781 0.953629 0
M  V30 23 H 4.37855 1.74097 0.836232 0
M  V30 24 H -2.17716 2.29464 -0.152017 0
M  V30 25 H -4.03354 2.11077 1.43068 0
M  V30 26 H -5.16427 0.0300912 1.82572 0
M  V30 27 H -4.43159 -2.02355 0.586556 0
M  V30 28 H -2.59584 -1.93195 -1.00462 0
M  V30 END ATOM
M  V30 BEGIN BOND
M  V30 1 1 1 2
M  V30 2 2 2 3
M  V30 3 1 3 4
M  V30 4 2 4 5
M  V30 5 1 5 6
M  V30 6 2 6 7
M  V30 7 1 7 8
M  V30 8 1 5 9
M  V30 9 2 9 10
M  V30 10 1 9 11
M  V30 11 2 11 12
M  V30 12 1 12 13
M  V30 13 2 13 14
M  V30 14 1 14 15
M  V30 15 2 15 16
M  V30 16 1 7 2
M  V30 17 1 16 11
M  V30 18 1 1 17
M  V30 19 1 1 18
M  V30 20 1 3 19
M  V30 21 1 4 20
M  V30 22 1 6 21
M  V30 23 1 8 22
M  V30 24 1 8 23
M  V30 25 1 12 24
M  V30 26 1 13 25
M  V30 27 1 14 26
M  V30 28 1 15 27
M  V30 29 1 16 28
M  V30 END BOND
M  V30 END CTAB
M  END
