
     RDKit          3D

  0  0  0  0  0  0  0  0  0  0999 V3000
M  V30 BEGIN CTAB
M  V30 COUNTS 23 23 0 0 0
M  V30 BEGIN ATOM
M  V30 1 N 3.24452 1.41208 0.0903418 0
M  V30 2 C 3.52985 0.0284633 0.109936 0
M  V30 3 N 2.57652 -0.805099 0.0960068 0
M  V30 4 C 1.20083 -0.434674 0.0610601 0
M  V30 5 N 0.20043 -1.28546 0.0462155 0
M  V30 6 C -1.03015 -0.864559 0.0141213 0
M  V30 7 C -1.24788 0.480003 -0.00355249 0
M  V30 8 S 0.395787 1.062 0.0285433 0
M  V30 9 C -2.46111 1.30183 -0.039544 0
M  V30 10 O -2.34784 2.58087 -0.0484469 0
M  V30 11 C -3.81271 0.733351 -0.0661815 0
M  V30 12 C -2.17974 -1.86824 -0.00392372 0
M  V30 13 N 4.87543 -0.420748 0.144958 0
M  V30 14 H 3.42884 1.98342 -0.745583 0
M  V30 15 H 2.84237 1.85333 0.936529 0
M  V30 16 H -4.5613 1.53173 -0.325489 0
M  V30 17 H -4.13937 0.39583 0.961627 0
M  V30 18 H -3.97826 -0.068606 -0.782393 0
M  V30 19 H -2.85542 -1.58039 0.799682 0
M  V30 20 H -1.81609 -2.89019 0.262244 0
M  V30 21 H -2.58097 -1.94725 -1.00874 0
M  V30 22 H 5.11771 -1.16433 0.816968 0
M  V30 23 H 5.59858 -0.0333787 -0.467866 0
M  V30 END ATOM
M  V30 BEGIN BOND
M  V30 1 1 1 2
M  V30 2 2 2 3 CFG=2
M  V30 3 1 3 4
M  V30 4 2 4 5
M  V30 5 1 5 6
M  V30 6 2 6 7
M  V30 7 1 7 8
M  V30 8 1 7 9
M  V30 9 2 9 10
M  V30 10 1 9 11
M  V30 11 1 6 12
M  V30 12 1 2 13
M  V30 13 1 8 4
M  V30 14 1 1 14
M  V30 15 1 1 15
M  V30 16 1 11 16
M  V30 17 1 11 17
M  V30 18 1 11 18
M  V30 19 1 12 19
M  V30 20 1 12 20
M  V30 21 1 12 21
M  V30 22 1 13 22
M  V30 23 1 13 23
M  V30 END BOND
M  V30 END CTAB
M  END
