
     RDKit          3D

  0  0  0  0  0  0  0  0  0  0999 V3000
M  V30 BEGIN CTAB
M  V30 COUNTS 49 53 0 0 0
M  V30 BEGIN ATOM
M  V30 1 N 4.2569 -2.49198 0.48853 0
M  V30 2 C 3.43654 -1.43241 0.013985 0
M  V30 3 C 2.08828 -1.33157 0.277398 0
M  V30 4 C 1.33236 -0.291004 -0.200464 0
M  V30 5 C 1.92661 0.677082 -0.95996 0
M  V30 6 C 3.28806 0.618754 -1.25372 0
M  V30 7 C 4.01931 -0.437463 -0.76005 0
M  V30 8 O 5.39083 -0.510223 -1.04705 0
M  V30 9 C -0.0888816 -0.217824 0.109043 0
M  V30 10 C -0.423712 1.25106 0.220221 0
M  V30 11 C 0.375387 2.08986 0.983551 0
M  V30 12 C 0.084897 3.43099 1.11512 0
M  V30 13 C -1.02823 3.97707 0.477893 0
M  V30 14 C -1.82007 3.16352 -0.273834 0
M  V30 15 C -1.50991 1.82542 -0.390746 0
M  V30 16 N -2.97076 3.67115 -0.946605 0
M  V30 17 O -1.35464 5.3235 0.585551 0
M  V30 18 C -0.589357 -0.95599 1.22953 0
M  V30 19 C -0.277401 -0.949683 2.60334 0
M  V30 20 C -0.937317 -1.77478 3.48342 0
M  V30 21 C -1.92789 -2.64359 3.08009 0
M  V30 22 C -2.24486 -2.65997 1.72889 0
M  V30 23 C -1.56737 -1.82073 0.860543 0
M  V30 24 C -1.71005 -1.66731 -0.582826 0
M  V30 25 C -0.835586 -0.731512 -1.05951 0
M  V30 26 C -0.75431 -0.403509 -2.43203 0
M  V30 27 C -1.59843 -1.06752 -3.28355 0
M  V30 28 C -2.4875 -2.01107 -2.83554 0
M  V30 29 C -2.55187 -2.31619 -1.5021 0
M  V30 30 H 5.00491 -2.95129 -0.0712703 0
M  V30 31 H 4.10944 -2.84149 1.46068 0
M  V30 32 H 1.66684 -2.14107 0.894454 0
M  V30 33 H 1.42492 1.54027 -1.38059 0
M  V30 34 H 3.7734 1.39215 -1.86333 0
M  V30 35 H 5.96146 -1.26548 -0.705582 0
M  V30 36 H 1.23022 1.65654 1.46944 0
M  V30 37 H 0.687109 4.10941 1.70182 0
M  V30 38 H -2.17957 1.22589 -0.991572 0
M  V30 39 H -3.09583 4.69733 -1.0589 0
M  V30 40 H -3.70847 3.06385 -1.34032 0
M  V30 41 H -0.78097 5.92734 1.13381 0
M  V30 42 H 0.486961 -0.298193 3.00276 0
M  V30 43 H -0.704375 -1.77916 4.55178 0
M  V30 44 H -2.431 -3.28176 3.79486 0
M  V30 45 H -3.01563 -3.33515 1.41108 0
M  V30 46 H -0.0464944 0.341295 -2.75411 0
M  V30 47 H -1.51926 -0.797763 -4.34607 0
M  V30 48 H -3.13468 -2.51418 -3.519 0
M  V30 49 H -3.24999 -3.06261 -1.11907 0
M  V30 END ATOM
M  V30 BEGIN BOND
M  V30 1 1 1 2
M  V30 2 2 2 3
M  V30 3 1 3 4
M  V30 4 2 4 5
M  V30 5 1 5 6
M  V30 6 2 6 7
M  V30 7 1 7 8
M  V30 8 1 4 9
M  V30 9 1 9 10
M  V30 10 2 10 11
M  V30 11 1 11 12
M  V30 12 2 12 13
M  V30 13 1 13 14
M  V30 14 2 14 15
M  V30 15 1 14 16
M  V30 16 1 13 17
M  V30 17 1 9 18
M  V30 18 2 18 19
M  V30 19 1 19 20
M  V30 20 2 20 21
M  V30 21 1 21 22
M  V30 22 2 22 23
M  V30 23 1 23 24
M  V30 24 2 24 25
M  V30 25 1 25 26
M  V30 26 2 26 27
M  V30 27 1 27 28
M  V30 28 2 28 29
M  V30 29 1 7 2
M  V30 30 1 25 9
M  V30 31 1 15 10
M  V30 32 1 23 18
M  V30 33 1 29 24
M  V30 34 1 1 30
M  V30 35 1 1 31
M  V30 36 1 3 32
M  V30 37 1 5 33
M  V30 38 1 6 34
M  V30 39 1 8 35
M  V30 40 1 11 36
M  V30 41 1 12 37
M  V30 42 1 15 38
M  V30 43 1 16 39
M  V30 44 1 16 40
M  V30 45 1 17 41
M  V30 46 1 19 42
M  V30 47 1 20 43
M  V30 48 1 21 44
M  V30 49 1 22 45
M  V30 50 1 26 46
M  V30 51 1 27 47
M  V30 52 1 28 48
M  V30 53 1 29 49
M  V30 END BOND
M  V30 END CTAB
M  END
