
     RDKit          3D

  0  0  0  0  0  0  0  0  0  0999 V3000
M  V30 BEGIN CTAB
M  V30 COUNTS 30 30 0 0 0
M  V30 BEGIN ATOM
M  V30 1 N -4.72111 -0.000626636 1.57505 0
M  V30 2 N -3.54043 0.625901 1.2209 0
M  V30 3 C -2.63226 0.0447097 0.308876 0
M  V30 4 O -2.93516 -1.09272 -0.187928 0
M  V30 5 C -1.35592 0.711553 -0.0801652 0
M  V30 6 C -0.542433 0.901841 1.14725 0
M  V30 7 C 0.9346 1.0022 0.901184 0
M  V30 8 C 1.30691 -0.259087 0.141845 0
M  V30 9 C 0.75172 -0.0245285 -1.25343 0
M  V30 10 C -0.752298 -0.0190715 -1.19597 0
M  V30 11 C 2.75196 -0.419663 0.0453275 0
M  V30 12 O 3.50681 0.431188 0.558016 0
M  V30 13 N 3.30417 -1.53329 -0.625475 0
M  V30 14 N 4.70562 -1.71007 -0.731768 0
M  V30 15 H -5.37368 0.711308 1.96631 0
M  V30 16 H -5.20676 -0.417829 0.733643 0
M  V30 17 H -3.27664 1.56665 1.62349 0
M  V30 18 H -1.6673 1.739 -0.434179 0
M  V30 19 H -0.747025 0.0934928 1.90045 0
M  V30 20 H -0.850613 1.84637 1.66569 0
M  V30 21 H 1.12047 1.89424 0.282621 0
M  V30 22 H 1.46622 1.02096 1.86249 0
M  V30 23 H 0.774781 -1.14715 0.546235 0
M  V30 24 H 1.11395 -0.862765 -1.88196 0
M  V30 25 H 1.14741 0.921534 -1.66048 0
M  V30 26 H -1.06581 -1.10512 -1.21165 0
M  V30 27 H -1.10028 0.373979 -2.18651 0
M  V30 28 H 2.69275 -2.25907 -1.06278 0
M  V30 29 H 4.98555 -2.22354 0.1302 0
M  V30 30 H 5.2048 -0.810387 -0.835161 0
M  V30 END ATOM
M  V30 BEGIN BOND
M  V30 1 1 1 2
M  V30 2 1 2 3
M  V30 3 2 3 4
M  V30 4 1 3 5
M  V30 5 1 5 6
M  V30 6 1 6 7
M  V30 7 1 7 8
M  V30 8 1 8 9
M  V30 9 1 9 10
M  V30 10 1 8 11
M  V30 11 2 11 12
M  V30 12 1 11 13
M  V30 13 1 13 14
M  V30 14 1 10 5
M  V30 15 1 1 15
M  V30 16 1 1 16
M  V30 17 1 2 17
M  V30 18 1 5 18
M  V30 19 1 6 19
M  V30 20 1 6 20
M  V30 21 1 7 21
M  V30 22 1 7 22
M  V30 23 1 8 23
M  V30 24 1 9 24
M  V30 25 1 9 25
M  V30 26 1 10 26
M  V30 27 1 10 27
M  V30 28 1 13 28
M  V30 29 1 14 29
M  V30 30 1 14 30
M  V30 END BOND
M  V30 END CTAB
M  END
