
     RDKit          3D

  0  0  0  0  0  0  0  0  0  0999 V3000
M  V30 BEGIN CTAB
M  V30 COUNTS 37 38 0 0 0
M  V30 BEGIN ATOM
M  V30 1 N -4.0194 1.04646 0.119521 0
M  V30 2 C -2.83818 0.419309 -0.446884 0
M  V30 3 C -1.93403 1.49367 -0.959321 0
M  V30 4 C -0.547184 1.43986 -0.358731 0
M  V30 5 C -0.100371 0.00179717 -0.451297 0
M  V30 6 N -0.857736 -0.762309 0.468154 0
M  V30 7 C -2.23399 -0.483807 0.570827 0
M  V30 8 C -3.00675 -1.78902 0.603104 0
M  V30 9 C 1.35002 -0.0499091 -0.154527 0
M  V30 10 C 2.01012 1.06594 0.294796 0
M  V30 11 C 3.35477 1.04603 0.583144 0
M  V30 12 N 4.06967 2.16464 1.0464 0
M  V30 13 C 4.04127 -0.145337 0.407867 0
M  V30 14 C 3.36774 -1.25355 -0.0416902 0
M  V30 15 C 2.01313 -1.25072 -0.337213 0
M  V30 16 C 1.32723 -2.48499 -0.823698 0
M  V30 17 H -4.59056 1.45397 -0.632263 0
M  V30 18 H -3.6869 1.72832 0.826095 0
M  V30 19 H -3.19469 -0.172512 -1.3154 0
M  V30 20 H -2.33311 2.50901 -0.763571 0
M  V30 21 H -1.7916 1.4261 -2.0587 0
M  V30 22 H 0.149387 2.01841 -1.03044 0
M  V30 23 H -0.520228 1.79347 0.679301 0
M  V30 24 H -0.302444 -0.338233 -1.48667 0
M  V30 25 H -0.371857 -0.946797 1.37559 0
M  V30 26 H -2.39855 -0.0386375 1.60034 0
M  V30 27 H -4.09523 -1.4948 0.54799 0
M  V30 28 H -2.81523 -2.33363 1.55303 0
M  V30 29 H -2.8381 -2.40714 -0.292989 0
M  V30 30 H 1.52173 2.0374 0.454646 0
M  V30 31 H 4.18925 2.3025 2.06556 0
M  V30 32 H 4.48229 2.85739 0.400686 0
M  V30 33 H 5.11107 -0.192699 0.629253 0
M  V30 34 H 3.9027 -2.19311 -0.180547 0
M  V30 35 H 0.59955 -2.876 -0.0981443 0
M  V30 36 H 0.878703 -2.32574 -1.84298 0
M  V30 37 H 2.1075 -3.26533 -0.951212 0
M  V30 END ATOM
M  V30 BEGIN BOND
M  V30 1 1 1 2
M  V30 2 1 2 3
M  V30 3 1 3 4
M  V30 4 1 4 5
M  V30 5 1 5 6
M  V30 6 1 6 7
M  V30 7 1 7 8
M  V30 8 1 5 9
M  V30 9 2 9 10
M  V30 10 1 10 11
M  V30 11 1 11 12
M  V30 12 2 11 13
M  V30 13 1 13 14
M  V30 14 2 14 15
M  V30 15 1 15 16
M  V30 16 1 7 2
M  V30 17 1 15 9
M  V30 18 1 1 17
M  V30 19 1 1 18
M  V30 20 1 2 19
M  V30 21 1 3 20
M  V30 22 1 3 21
M  V30 23 1 4 22
M  V30 24 1 4 23
M  V30 25 1 5 24
M  V30 26 1 6 25
M  V30 27 1 7 26
M  V30 28 1 8 27
M  V30 29 1 8 28
M  V30 30 1 8 29
M  V30 31 1 10 30
M  V30 32 1 12 31
M  V30 33 1 12 32
M  V30 34 1 13 33
M  V30 35 1 14 34
M  V30 36 1 16 35
M  V30 37 1 16 36
M  V30 38 1 16 37
M  V30 END BOND
M  V30 END CTAB
M  END
