
     RDKit          3D

  0  0  0  0  0  0  0  0  0  0999 V3000
M  V30 BEGIN CTAB
M  V30 COUNTS 24 23 0 0 0
M  V30 BEGIN ATOM
M  V30 1 C 2.7016 -0.465421 -0.0308422 0
M  V30 2 C 1.32286 0.0571198 -0.472415 0
M  V30 3 N 1.27356 1.41889 0.0661964 0
M  V30 4 C 0.320518 -0.844803 0.147756 0
M  V30 5 C -1.10028 -0.570587 -0.115944 0
M  V30 6 C -1.46439 -0.626219 -1.59776 0
M  V30 7 C -1.67127 0.68223 0.439517 0
M  V30 8 N -1.58119 0.752002 1.8958 0
M  V30 9 H 3.46876 0.301252 -0.135539 0
M  V30 10 H 2.56474 -0.722646 1.05525 0
M  V30 11 H 2.87319 -1.38933 -0.601544 0
M  V30 12 H 1.25549 0.108545 -1.57506 0
M  V30 13 H 1.5504 1.40464 1.07718 0
M  V30 14 H 1.98951 1.9729 -0.446619 0
M  V30 15 H 0.491035 -0.8543 1.24082 0
M  V30 16 H 0.543266 -1.88149 -0.212052 0
M  V30 17 H -1.68696 -1.42378 0.341103 0
M  V30 18 H -1.56322 -1.68896 -1.92794 0
M  V30 19 H -0.777499 -0.0426837 -2.21681 0
M  V30 20 H -2.48116 -0.186031 -1.67937 0
M  V30 21 H -2.78432 0.639223 0.237585 0
M  V30 22 H -1.30122 1.59211 -0.0192419 0
M  V30 23 H -1.81462 1.7354 2.15964 0
M  V30 24 H -2.12879 0.0319371 2.37028 0
M  V30 END ATOM
M  V30 BEGIN BOND
M  V30 1 1 1 2
M  V30 2 1 2 3
M  V30 3 1 2 4
M  V30 4 1 4 5
M  V30 5 1 5 6
M  V30 6 1 5 7
M  V30 7 1 7 8
M  V30 8 1 1 9
M  V30 9 1 1 10
M  V30 10 1 1 11
M  V30 11 1 2 12
M  V30 12 1 3 13
M  V30 13 1 3 14
M  V30 14 1 4 15
M  V30 15 1 4 16
M  V30 16 1 5 17
M  V30 17 1 6 18
M  V30 18 1 6 19
M  V30 19 1 6 20
M  V30 20 1 7 21
M  V30 21 1 7 22
M  V30 22 1 8 23
M  V30 23 1 8 24
M  V30 END BOND
M  V30 END CTAB
M  END
