
     RDKit          3D

  0  0  0  0  0  0  0  0  0  0999 V3000
M  V30 BEGIN CTAB
M  V30 COUNTS 59 62 0 0 0
M  V30 BEGIN ATOM
M  V30 1 N 4.86719 2.66042 -3.17778 0
M  V30 2 C 5.9181 2.59559 -2.21145 0 CFG=1
M  V30 3 C 5.74015 1.34335 -1.44344 0
M  V30 4 C 4.49063 1.18198 -0.676869 0
M  V30 5 C 4.4391 1.38301 0.70037 0
M  V30 6 C 3.27114 1.24354 1.43575 0
M  V30 7 C 2.08483 0.894189 0.828028 0
M  V30 8 C 2.12975 0.696363 -0.53605 0
M  V30 9 C 3.29586 0.835639 -1.26327 0
M  V30 10 C 0.847289 0.658197 1.585 0
M  V30 11 N -0.332842 0.533699 0.967746 0
M  V30 12 C -1.49095 0.23489 1.59759 0
M  V30 13 O -2.68981 0.119137 0.918275 0
M  V30 14 C -3.8735 -0.247161 1.53004 0 CFG=2
M  V30 15 C -4.55263 -1.44819 1.08729 0
M  V30 16 C -4.07914 -2.19159 -0.000904158 0
M  V30 17 C -4.64463 -3.43359 -0.280362 0
M  V30 18 C -5.64418 -3.97351 0.445749 0
M  V30 19 C -6.13036 -3.26725 1.51447 0
M  V30 20 C -5.56263 -2.02109 1.79896 0
M  V30 21 C -3.1176 -1.706 -0.962031 0
M  V30 22 C -1.93027 -2.36997 -1.17674 0
M  V30 23 C -1.03902 -1.8964 -2.156 0
M  V30 24 C -1.34833 -0.767349 -2.90244 0
M  V30 25 C -2.52815 -0.0955447 -2.69708 0
M  V30 26 C -3.38781 -0.599717 -1.71453 0
M  V30 27 C -4.71536 0.853456 2.0443 0
M  V30 28 F -5.8799 0.559877 2.64293 0
M  V30 29 F -3.99008 1.64294 2.97628 0
M  V30 30 F -5.02651 1.77538 1.02151 0
M  V30 31 N -1.42808 0.0556412 2.92711 0
M  V30 32 C -0.270987 0.167171 3.60501 0
M  V30 33 N -0.251709 -0.0503162 5.02421 0
M  V30 34 N 0.842454 0.467222 2.92247 0
M  V30 35 C 7.1877 2.42639 -3.00888 0
M  V30 36 O 8.43806 2.39418 -2.40687 0
M  V30 37 O 7.13883 2.30921 -4.25451 0
M  V30 38 H 4.76462 3.49659 -3.67677 0
M  V30 39 H 4.8355 1.82316 -3.7089 0
M  V30 40 H 6.03588 3.52556 -1.65113 0
M  V30 41 H 5.94697 0.474004 -2.11087 0
M  V30 42 H 6.61639 1.29728 -0.714635 0
M  V30 43 H 5.36891 1.65571 1.19036 0
M  V30 44 H 3.25926 1.41318 2.51918 0
M  V30 45 H 1.1958 0.423018 -1.04118 0
M  V30 46 H 3.28812 0.667943 -2.35372 0
M  V30 47 H -3.4287 -0.651603 2.59292 0
M  V30 48 H -4.26104 -4.0193 -1.13326 0
M  V30 49 H -6.07094 -4.95453 0.202236 0
M  V30 50 H -6.94296 -3.68452 2.11696 0
M  V30 51 H -6.0207 -1.57462 2.68885 0
M  V30 52 H -1.62718 -3.24813 -0.633829 0
M  V30 53 H -0.0999143 -2.38878 -2.3491 0
M  V30 54 H -0.645586 -0.405535 -3.66657 0
M  V30 55 H -2.81947 0.804519 -3.25382 0
M  V30 56 H -4.31643 -0.0744891 -1.55084 0
M  V30 57 H -0.918335 0.421606 5.62289 0
M  V30 58 H 0.461806 -0.700118 5.3985 0
M  V30 59 H 8.60139 2.73528 -1.4732 0
M  V30 END ATOM
M  V30 BEGIN BOND
M  V30 1 1 1 2
M  V30 2 1 2 3
M  V30 3 1 3 4
M  V30 4 2 4 5
M  V30 5 1 5 6
M  V30 6 2 6 7
M  V30 7 1 7 8
M  V30 8 2 8 9
M  V30 9 1 7 10
M  V30 10 2 10 11
M  V30 11 1 11 12
M  V30 12 1 12 13
M  V30 13 1 13 14
M  V30 14 1 14 15
M  V30 15 1 15 16
M  V30 16 2 16 17
M  V30 17 1 17 18
M  V30 18 2 18 19
M  V30 19 1 19 20
M  V30 20 1 16 21
M  V30 21 2 21 22
M  V30 22 1 22 23
M  V30 23 2 23 24
M  V30 24 1 24 25
M  V30 25 2 25 26
M  V30 26 1 14 27
M  V30 27 1 27 28
M  V30 28 1 27 29
M  V30 29 1 27 30
M  V30 30 2 12 31
M  V30 31 1 31 32
M  V30 32 1 32 33
M  V30 33 2 32 34
M  V30 34 1 2 35
M  V30 35 1 35 36
M  V30 36 2 35 37
M  V30 37 1 9 4
M  V30 38 1 34 10
M  V30 39 2 20 15
M  V30 40 1 26 21
M  V30 41 1 1 38
M  V30 42 1 1 39
M  V30 43 1 2 40 CFG=1
M  V30 44 1 3 41
M  V30 45 1 3 42
M  V30 46 1 5 43
M  V30 47 1 6 44
M  V30 48 1 8 45
M  V30 49 1 9 46
M  V30 50 1 14 47 CFG=1
M  V30 51 1 17 48
M  V30 52 1 18 49
M  V30 53 1 19 50
M  V30 54 1 20 51
M  V30 55 1 22 52
M  V30 56 1 23 53
M  V30 57 1 24 54
M  V30 58 1 25 55
M  V30 59 1 26 56
M  V30 60 1 33 57
M  V30 61 1 33 58
M  V30 62 1 36 59
M  V30 END BOND
M  V30 END CTAB
M  END
