
     RDKit          3D

  0  0  0  0  0  0  0  0  0  0999 V3000
M  V30 BEGIN CTAB
M  V30 COUNTS 25 24 0 0 0
M  V30 BEGIN ATOM
M  V30 1 C 0.491966 0.411209 0.236755 0 CFG=2
M  V30 2 N 0.666952 -0.423296 1.40381 0
M  V30 3 C -0.534016 -0.21507 -0.64321 0
M  V30 4 C -1.82127 -0.306438 0.159183 0
M  V30 5 C -2.24931 1.06646 0.571778 0
M  V30 6 C -2.84057 -0.994066 -0.721858 0
M  V30 7 C 1.76259 0.581043 -0.464125 0
M  V30 8 O 1.75202 1.29504 -1.51264 0
M  V30 9 N 2.93542 -0.0314053 0.0225926 0
M  V30 10 N 4.12758 0.146727 -0.662687 0
M  V30 11 H 0.130952 1.39213 0.56014 0
M  V30 12 H 0.888497 -1.37337 1.07196 0
M  V30 13 H 1.33162 -0.0149966 2.07166 0
M  V30 14 H -0.165972 -1.25838 -0.87127 0
M  V30 15 H -0.673701 0.272299 -1.60459 0
M  V30 16 H -1.69032 -0.92278 1.06761 0
M  V30 17 H -1.6866 1.3365 1.4962 0
M  V30 18 H -2.01327 1.82859 -0.198136 0
M  V30 19 H -3.32568 1.04521 0.840853 0
M  V30 20 H -3.53694 -0.188995 -1.09515 0
M  V30 21 H -3.42986 -1.73627 -0.170122 0
M  V30 22 H -2.36816 -1.48739 -1.58027 0
M  V30 23 H 2.89966 -0.607114 0.883756 0
M  V30 24 H 4.63383 -0.731842 -0.861444 0
M  V30 25 H 4.71456 0.916214 -0.318835 0
M  V30 END ATOM
M  V30 BEGIN BOND
M  V30 1 1 1 2
M  V30 2 1 1 3
M  V30 3 1 3 4
M  V30 4 1 4 5
M  V30 5 1 4 6
M  V30 6 1 1 7
M  V30 7 2 7 8
M  V30 8 1 7 9
M  V30 9 1 9 10
M  V30 10 1 1 11 CFG=1
M  V30 11 1 2 12
M  V30 12 1 2 13
M  V30 13 1 3 14
M  V30 14 1 3 15
M  V30 15 1 4 16
M  V30 16 1 5 17
M  V30 17 1 5 18
M  V30 18 1 5 19
M  V30 19 1 6 20
M  V30 20 1 6 21
M  V30 21 1 6 22
M  V30 22 1 9 23
M  V30 23 1 10 24
M  V30 24 1 10 25
M  V30 END BOND
M  V30 END CTAB
M  END
