
     RDKit          3D

  0  0  0  0  0  0  0  0  0  0999 V3000
M  V30 BEGIN CTAB
M  V30 COUNTS 55 57 0 0 0
M  V30 BEGIN ATOM
M  V30 1 C -5.81806 1.60339 -0.728432 0
M  V30 2 C -5.96417 0.309823 -0.0358377 0
M  V30 3 C -4.76711 -0.555626 -0.0514025 0
M  V30 4 N -3.62998 -0.00167745 0.580963 0
M  V30 5 C -2.64233 -1.08981 0.840293 0
M  V30 6 C -1.63482 -0.432102 1.74306 0
M  V30 7 C -0.660663 0.310022 0.884336 0
M  V30 8 C -1.44607 0.822939 -0.291911 0
M  V30 9 C -2.9164 1.04778 -0.0510729 0
M  V30 10 N 0.374054 -0.531383 0.342704 0
M  V30 11 C 1.21184 -1.1815 1.29332 0
M  V30 12 C 2.60146 -1.47754 0.77047 0
M  V30 13 N 3.17863 -0.315187 0.137076 0
M  V30 14 C 2.29978 0.758259 -0.296871 0
M  V30 15 C 1.04979 0.000487708 -0.78734 0
M  V30 16 C 4.5528 -0.227292 -0.0652744 0
M  V30 17 C 5.12541 0.986993 -0.429038 0
M  V30 18 C 6.48089 1.07893 -0.648643 0
M  V30 19 N 7.03752 2.31857 -1.02266 0
M  V30 20 N 7.19347 -0.0429257 -0.493839 0
M  V30 21 C 6.66488 -1.22138 -0.144623 0
M  V30 22 N 5.35362 -1.30479 0.0663492 0
M  V30 23 N 7.53877 -2.34377 -0.0183118 0
M  V30 24 C -7.15204 -0.484211 -0.591334 0
M  V30 25 H -6.88427 2.02637 -0.816192 0
M  V30 26 H -5.24904 2.34032 -0.173935 0
M  V30 27 H -5.51203 1.48906 -1.79266 0
M  V30 28 H -6.17216 0.524989 1.06867 0
M  V30 29 H -5.01204 -1.51461 0.526714 0
M  V30 30 H -4.53697 -0.957329 -1.08201 0
M  V30 31 H -3.22164 -1.86471 1.36805 0
M  V30 32 H -2.14761 -1.41471 -0.0816756 0
M  V30 33 H -2.15416 0.343732 2.37901 0
M  V30 34 H -1.19444 -1.14441 2.45067 0
M  V30 35 H -0.286778 1.1852 1.44765 0
M  V30 36 H -1.40167 0.088451 -1.14728 0
M  V30 37 H -1.04963 1.81444 -0.624362 0
M  V30 38 H -3.05834 1.99334 0.543455 0
M  V30 39 H -3.31966 1.27116 -1.06235 0
M  V30 40 H 0.749686 -2.1483 1.55957 0
M  V30 41 H 1.35123 -0.619622 2.23544 0
M  V30 42 H 2.57616 -2.26723 -0.00351876 0
M  V30 43 H 3.30451 -1.80974 1.54749 0
M  V30 44 H 2.71457 1.30228 -1.15042 0
M  V30 45 H 2.02275 1.37159 0.566017 0
M  V30 46 H 1.42864 -0.826715 -1.41206 0
M  V30 47 H 0.482147 0.721317 -1.35216 0
M  V30 48 H 4.53635 1.89742 -0.547518 0
M  V30 49 H 7.38287 2.47485 -1.98145 0
M  V30 50 H 7.09851 3.07764 -0.325474 0
M  V30 51 H 8.41876 -2.2592 0.513836 0
M  V30 52 H 7.26951 -3.23227 -0.469193 0
M  V30 53 H -6.8869 -1.53951 -0.546876 0
M  V30 54 H -7.25031 -0.152578 -1.65044 0
M  V30 55 H -8.02927 -0.199221 0.00991082 0
M  V30 END ATOM
M  V30 BEGIN BOND
M  V30 1 1 1 2
M  V30 2 1 2 3
M  V30 3 1 3 4
M  V30 4 1 4 5
M  V30 5 1 5 6
M  V30 6 1 6 7
M  V30 7 1 7 8
M  V30 8 1 8 9
M  V30 9 1 7 10
M  V30 10 1 10 11
M  V30 11 1 11 12
M  V30 12 1 12 13
M  V30 13 1 13 14
M  V30 14 1 14 15
M  V30 15 1 13 16
M  V30 16 2 16 17
M  V30 17 1 17 18
M  V30 18 1 18 19
M  V30 19 2 18 20
M  V30 20 1 20 21
M  V30 21 2 21 22
M  V30 22 1 21 23
M  V30 23 1 2 24
M  V30 24 1 9 4
M  V30 25 1 15 10
M  V30 26 1 22 16
M  V30 27 1 1 25
M  V30 28 1 1 26
M  V30 29 1 1 27
M  V30 30 1 2 28
M  V30 31 1 3 29
M  V30 32 1 3 30
M  V30 33 1 5 31
M  V30 34 1 5 32
M  V30 35 1 6 33
M  V30 36 1 6 34
M  V30 37 1 7 35
M  V30 38 1 8 36
M  V30 39 1 8 37
M  V30 40 1 9 38
M  V30 41 1 9 39
M  V30 42 1 11 40
M  V30 43 1 11 41
M  V30 44 1 12 42
M  V30 45 1 12 43
M  V30 46 1 14 44
M  V30 47 1 14 45
M  V30 48 1 15 46
M  V30 49 1 15 47
M  V30 50 1 17 48
M  V30 51 1 19 49
M  V30 52 1 19 50
M  V30 53 1 23 51
M  V30 54 1 23 52
M  V30 55 1 24 53
M  V30 56 1 24 54
M  V30 57 1 24 55
M  V30 END BOND
M  V30 END CTAB
M  END
