
     RDKit          3D

  0  0  0  0  0  0  0  0  0  0999 V3000
M  V30 BEGIN CTAB
M  V30 COUNTS 42 45 0 0 0
M  V30 BEGIN ATOM
M  V30 1 O 4.72602 -1.80695 -0.17318 0
M  V30 2 C 3.83529 -0.950106 -0.0801 0
M  V30 3 C 2.4223 -1.41477 -0.0265895 0
M  V30 4 S 1.89104 -3.01716 -0.0801608 0
M  V30 5 C 0.202303 -2.67773 0.0299948 0
M  V30 6 C 0.0845834 -1.32334 0.106363 0
M  V30 7 C 1.31063 -0.643697 0.0741921 0
M  V30 8 N 1.50675 0.796737 0.137807 0
M  V30 9 C -1.23461 -0.872923 0.201995 0
M  V30 10 C -2.1983 -1.81972 0.206001 0
M  V30 11 S -1.39903 -3.31822 0.0847971 0
M  V30 12 C -3.67041 -1.63351 0.2964 0
M  V30 13 O -4.4113 -2.62461 0.285917 0
M  V30 14 O -4.17959 -0.381005 0.388978 0
M  V30 15 C -5.54107 -0.0862744 0.478926 0
M  V30 16 C -6.11192 -0.00979851 1.73148 0
M  V30 17 C -7.47046 0.28145 1.89446 0
M  V30 18 C -8.27845 0.501126 0.79315 0
M  V30 19 C -7.68957 0.420351 -0.450382 0
M  V30 20 C -6.33965 0.131316 -0.621763 0
M  V30 21 N -1.66379 0.522306 0.297558 0
M  V30 22 O 4.18598 0.382645 -0.0305501 0
M  V30 23 C 5.52709 0.772204 -0.0839801 0
M  V30 24 C 6.29567 0.918762 1.03613 0
M  V30 25 C 7.6001 1.30272 0.908354 0
M  V30 26 C 8.14646 1.54267 -0.332621 0
M  V30 27 C 7.37038 1.39382 -1.4508 0
M  V30 28 C 6.06575 1.00973 -1.32182 0
M  V30 29 H 1.22709 1.28624 0.983388 0
M  V30 30 H 1.91758 1.25521 -0.670887 0
M  V30 31 H -5.52864 -0.172121 2.62331 0
M  V30 32 H -7.92316 0.342927 2.8668 0
M  V30 33 H -9.33497 0.728838 0.888801 0
M  V30 34 H -8.29994 0.588058 -1.32773 0
M  V30 35 H -5.87849 0.068027 -1.59435 0
M  V30 36 H -2.24816 0.933825 -0.458765 0
M  V30 37 H -1.40165 1.10534 1.09403 0
M  V30 38 H 5.84115 0.723916 1.99704 0
M  V30 39 H 8.21285 1.41889 1.81159 0
M  V30 40 H 9.18644 1.85067 -0.462745 0
M  V30 41 H 7.78944 1.5801 -2.436 0
M  V30 42 H 5.45828 0.894061 -2.20973 0
M  V30 END ATOM
M  V30 BEGIN BOND
M  V30 1 2 1 2
M  V30 2 1 2 3
M  V30 3 1 3 4
M  V30 4 1 4 5
M  V30 5 2 5 6
M  V30 6 1 6 7
M  V30 7 1 7 8
M  V30 8 1 6 9
M  V30 9 2 9 10
M  V30 10 1 10 11
M  V30 11 1 10 12
M  V30 12 2 12 13
M  V30 13 1 12 14
M  V30 14 1 14 15
M  V30 15 2 15 16
M  V30 16 1 16 17
M  V30 17 2 17 18
M  V30 18 1 18 19
M  V30 19 2 19 20
M  V30 20 1 9 21
M  V30 21 1 2 22
M  V30 22 1 22 23
M  V30 23 2 23 24
M  V30 24 1 24 25
M  V30 25 2 25 26
M  V30 26 1 26 27
M  V30 27 2 27 28
M  V30 28 2 7 3
M  V30 29 1 20 15
M  V30 30 1 28 23
M  V30 31 1 11 5
M  V30 32 1 8 29
M  V30 33 1 8 30
M  V30 34 1 16 31
M  V30 35 1 17 32
M  V30 36 1 18 33
M  V30 37 1 19 34
M  V30 38 1 20 35
M  V30 39 1 21 36
M  V30 40 1 21 37
M  V30 41 1 24 38
M  V30 42 1 25 39
M  V30 43 1 26 40
M  V30 44 1 27 41
M  V30 45 1 28 42
M  V30 END BOND
M  V30 END CTAB
M  END
