
     RDKit          3D

  0  0  0  0  0  0  0  0  0  0999 V3000
M  V30 BEGIN CTAB
M  V30 COUNTS 58 61 0 0 0
M  V30 BEGIN ATOM
M  V30 1 N 5.8645 1.88913 -2.98738 0
M  V30 2 C 6.4318 0.633499 -2.71016 0
M  V30 3 N 7.50861 0.262586 -3.27627 0
M  V30 4 C 5.78133 -0.258675 -1.76849 0
M  V30 5 C 6.32387 -1.52038 -1.48934 0
M  V30 6 C 5.72041 -2.3826 -0.597123 0
M  V30 7 C 4.55713 -2.02365 0.0499456 0
M  V30 8 C 3.98785 -0.771445 -0.204661 0
M  V30 9 O 2.81208 -0.440564 0.466657 0
M  V30 10 C 2.9412 0.188107 1.72649 0
M  V30 11 C 1.76081 0.525729 2.42728 0
M  V30 12 N 0.531007 0.20602 1.80208 0
M  V30 13 C -0.73216 0.416238 2.3104 0
M  V30 14 O -0.955833 0.925643 3.41877 0
M  V30 15 C -1.94066 0.0309273 1.5351 0
M  V30 16 C -3.12627 -0.232957 2.17698 0
M  V30 17 C -4.24575 -0.583018 1.42019 0
M  V30 18 C -4.18018 -0.665379 0.060505 0
M  V30 19 C -3.00216 -0.403998 -0.583614 0
M  V30 20 C -1.89207 -0.057206 0.168103 0
M  V30 21 C -5.333 -0.998366 -0.745681 0
M  V30 22 C -5.34483 -2.2612 -1.35459 0
M  V30 23 C -6.39496 -2.70279 -2.12068 0
M  V30 24 C -7.49069 -1.89523 -2.31463 0
M  V30 25 C -7.47609 -0.657308 -1.71669 0
M  V30 26 C -6.42441 -0.189435 -0.938054 0
M  V30 27 S -6.49081 1.41075 -0.255403 0
M  V30 28 N -5.13713 2.36375 -0.790672 0
M  V30 29 O -7.73832 2.10445 -0.784968 0
M  V30 30 O -6.56188 1.45945 1.21381 0
M  V30 31 C 1.88308 1.13652 3.65294 0
M  V30 32 C 3.1282 1.41833 4.19659 0
M  V30 33 C 4.26022 1.07707 3.48939 0
M  V30 34 O 5.48789 1.37214 4.06011 0
M  V30 35 C 4.1504 0.465388 2.26147 0
M  V30 36 C 4.61526 0.0517766 -1.09353 0
M  V30 37 H 5.76599 2.1956 -3.97632 0
M  V30 38 H 5.53981 2.52226 -2.2321 0
M  V30 39 H 8.02518 0.86878 -3.974 0
M  V30 40 H 7.25094 -1.79521 -2.01087 0
M  V30 41 H 6.13619 -3.35742 -0.379352 0
M  V30 42 H 4.04688 -2.67543 0.763024 0
M  V30 43 H 0.57546 -0.251421 0.834402 0
M  V30 44 H -3.17297 -0.165379 3.25362 0
M  V30 45 H -5.14274 -0.800925 1.99151 0
M  V30 46 H -2.9059 -0.45921 -1.67566 0
M  V30 47 H -0.955078 0.155573 -0.355216 0
M  V30 48 H -4.46922 -2.90199 -1.19727 0
M  V30 49 H -6.3408 -3.70303 -2.56964 0
M  V30 50 H -8.34816 -2.2167 -2.92084 0
M  V30 51 H -8.32685 0.00970666 -1.84793 0
M  V30 52 H -5.32943 2.7507 -1.74349 0
M  V30 53 H -5.01143 3.11884 -0.0772226 0
M  V30 54 H 1.02076 1.42307 4.24043 0
M  V30 55 H 3.18939 1.90799 5.18053 0
M  V30 56 H 5.9492 2.25816 3.89321 0
M  V30 57 H 5.0582 0.206044 1.72244 0
M  V30 58 H 4.16616 1.01668 -1.28243 0
M  V30 END ATOM
M  V30 BEGIN BOND
M  V30 1 1 1 2
M  V30 2 2 2 3 CFG=2
M  V30 3 1 2 4
M  V30 4 2 4 5
M  V30 5 1 5 6
M  V30 6 2 6 7
M  V30 7 1 7 8
M  V30 8 1 8 9
M  V30 9 1 9 10
M  V30 10 1 10 11
M  V30 11 1 11 12
M  V30 12 1 12 13
M  V30 13 2 13 14
M  V30 14 1 13 15
M  V30 15 2 15 16
M  V30 16 1 16 17
M  V30 17 2 17 18
M  V30 18 1 18 19
M  V30 19 2 19 20
M  V30 20 1 18 21
M  V30 21 2 21 22
M  V30 22 1 22 23
M  V30 23 2 23 24
M  V30 24 1 24 25
M  V30 25 2 25 26
M  V30 26 1 26 27
M  V30 27 1 27 28
M  V30 28 2 27 29
M  V30 29 2 27 30
M  V30 30 2 11 31
M  V30 31 1 31 32
M  V30 32 2 32 33
M  V30 33 1 33 34
M  V30 34 1 33 35
M  V30 35 2 8 36
M  V30 36 1 36 4
M  V30 37 2 35 10
M  V30 38 1 20 15
M  V30 39 1 26 21
M  V30 40 1 1 37
M  V30 41 1 1 38
M  V30 42 1 3 39
M  V30 43 1 5 40
M  V30 44 1 6 41
M  V30 45 1 7 42
M  V30 46 1 12 43
M  V30 47 1 16 44
M  V30 48 1 17 45
M  V30 49 1 19 46
M  V30 50 1 20 47
M  V30 51 1 22 48
M  V30 52 1 23 49
M  V30 53 1 24 50
M  V30 54 1 25 51
M  V30 55 1 28 52
M  V30 56 1 28 53
M  V30 57 1 31 54
M  V30 58 1 32 55
M  V30 59 1 34 56
M  V30 60 1 35 57
M  V30 61 1 36 58
M  V30 END BOND
M  V30 END CTAB
M  END
