
     RDKit          3D

  0  0  0  0  0  0  0  0  0  0999 V3000
M  V30 BEGIN CTAB
M  V30 COUNTS 26 26 0 0 0
M  V30 BEGIN ATOM
M  V30 1 N 3.29366 0.575001 0.903609 0
M  V30 2 C 2.14088 0.235309 0.163226 0
M  V30 3 N 1.08369 -0.113997 0.761245 0
M  V30 4 C -0.168913 -0.487218 0.0966276 0
M  V30 5 C 0.163129 -1.65859 -0.802749 0
M  V30 6 C -0.597504 0.67514 -0.716091 0
M  V30 7 C -2.0664 1.03782 -0.578166 0
M  V30 8 C -2.42889 1.02984 0.870132 0
M  V30 9 C -2.01745 0.0761757 1.69359 0
M  V30 10 C -1.17804 -0.982781 1.1004 0
M  V30 11 N 2.20277 0.296338 -1.24469 0
M  V30 12 H 3.28394 1.45558 1.46415 0
M  V30 13 H 4.15097 -0.020561 0.910084 0
M  V30 14 H 1.14958 -2.09429 -0.543646 0
M  V30 15 H -0.633329 -2.43483 -0.749062 0
M  V30 16 H 0.237792 -1.27416 -1.8488 0
M  V30 17 H -0.392777 0.476944 -1.7908 0
M  V30 18 H -0.00343299 1.60796 -0.485237 0
M  V30 19 H -2.72177 0.36491 -1.1721 0
M  V30 20 H -2.16248 2.07414 -0.976637 0
M  V30 21 H -3.04636 1.82627 1.26114 0
M  V30 22 H -2.27017 0.0502997 2.7559 0
M  V30 23 H -1.88099 -1.72691 0.62679 0
M  V30 24 H -0.610577 -1.56925 1.85941 0
M  V30 25 H 2.52355 -0.551626 -1.76541 0
M  V30 26 H 1.94914 1.1325 -1.79293 0
M  V30 END ATOM
M  V30 BEGIN BOND
M  V30 1 1 1 2
M  V30 2 2 2 3 CFG=2
M  V30 3 1 3 4
M  V30 4 1 4 5
M  V30 5 1 4 6
M  V30 6 1 6 7
M  V30 7 1 7 8
M  V30 8 2 8 9
M  V30 9 1 9 10
M  V30 10 1 2 11
M  V30 11 1 10 4
M  V30 12 1 1 12
M  V30 13 1 1 13
M  V30 14 1 5 14
M  V30 15 1 5 15
M  V30 16 1 5 16
M  V30 17 1 6 17
M  V30 18 1 6 18
M  V30 19 1 7 19
M  V30 20 1 7 20
M  V30 21 1 8 21
M  V30 22 1 9 22
M  V30 23 1 10 23
M  V30 24 1 10 24
M  V30 25 1 11 25
M  V30 26 1 11 26
M  V30 END BOND
M  V30 END CTAB
M  END
