
     RDKit          3D

  0  0  0  0  0  0  0  0  0  0999 V3000
M  V30 BEGIN CTAB
M  V30 COUNTS 57 59 0 0 0
M  V30 BEGIN ATOM
M  V30 1 O -8.0775 -0.411337 0.34233 0
M  V30 2 C -7.21767 -1.07891 -0.515638 0
M  V30 3 O -7.21214 -0.723717 -1.72237 0
M  V30 4 C -6.32003 -2.16697 -0.0895884 0
M  V30 5 C -4.86882 -1.85797 -0.423084 0
M  V30 6 C -4.47492 -0.591799 0.304362 0
M  V30 7 C -3.06881 -0.210558 0.036725 0
M  V30 8 O -2.42593 -0.893601 -0.793502 0
M  V30 9 N -2.47462 0.910695 0.715496 0
M  V30 10 C -1.11028 1.28197 0.444869 0 CFG=1
M  V30 11 C -0.132522 0.207205 0.822747 0
M  V30 12 C 1.28128 0.822725 0.818962 0
M  V30 13 C 1.49525 1.59827 -0.427805 0 CFG=1
M  V30 14 C 0.49185 1.11234 -1.4765 0 CFG=1
M  V30 15 C -0.87208 1.61552 -1.00554 0
M  V30 16 O 0.793967 1.73761 -2.69804 0
M  V30 17 O 1.06948 2.95575 -0.198269 0
M  V30 18 C 2.88285 1.71831 -0.936676 0
M  V30 19 N 3.58888 0.522659 -1.24588 0
M  V30 20 C 3.52804 -0.19543 -2.37452 0
M  V30 21 N 4.32801 -1.29527 -2.29467 0
M  V30 22 C 4.89968 -1.26181 -1.09171 0
M  V30 23 C 4.45173 -0.13273 -0.418299 0
M  V30 24 N 4.94701 0.0589831 0.810883 0
M  V30 25 C 5.82453 -0.783019 1.37058 0
M  V30 26 N 6.34212 -0.564018 2.67508 0
M  V30 27 N 6.25217 -1.88447 0.699151 0
M  V30 28 C 5.80674 -2.15252 -0.538017 0
M  V30 29 N 6.27133 -3.31212 -1.20323 0
M  V30 30 C -3.22236 1.68921 1.67799 0
M  V30 31 H -7.83032 0.449033 0.833646 0
M  V30 32 H -6.62511 -3.10793 -0.594699 0
M  V30 33 H -6.38687 -2.28846 0.997314 0
M  V30 34 H -4.82208 -1.7187 -1.53626 0
M  V30 35 H -4.2734 -2.73304 -0.100882 0
M  V30 36 H -5.18888 0.196956 -0.0243825 0
M  V30 37 H -4.68389 -0.754904 1.38044 0
M  V30 38 H -0.871048 2.16758 1.09576 0
M  V30 39 H -0.259709 -0.148038 1.88065 0
M  V30 40 H -0.173721 -0.685982 0.197602 0
M  V30 41 H 2.02524 0.062487 1.04863 0
M  V30 42 H 1.27007 1.55175 1.68127 0
M  V30 43 H 0.481402 0.0364766 -1.61194 0
M  V30 44 H -0.773523 2.74042 -1.06341 0
M  V30 45 H -1.61266 1.23013 -1.70145 0
M  V30 46 H 0.777676 1.07943 -3.45583 0
M  V30 47 H 1.2826 3.20721 0.731052 0
M  V30 48 H 2.83516 2.42113 -1.82642 0
M  V30 49 H 3.44295 2.34838 -0.175179 0
M  V30 50 H 2.95915 -0.0156493 -3.28259 0
M  V30 51 H 6.10495 0.320303 3.17527 0
M  V30 52 H 6.9412 -1.24869 3.1396 0
M  V30 53 H 5.67517 -4.16156 -1.21213 0
M  V30 54 H 7.18887 -3.34293 -1.68174 0
M  V30 55 H -3.15895 1.15215 2.65243 0
M  V30 56 H -2.81651 2.71757 1.7873 0
M  V30 57 H -4.285 1.80989 1.38967 0
M  V30 END ATOM
M  V30 BEGIN BOND
M  V30 1 1 1 2
M  V30 2 2 2 3
M  V30 3 1 2 4
M  V30 4 1 4 5
M  V30 5 1 5 6
M  V30 6 1 6 7
M  V30 7 2 7 8
M  V30 8 1 7 9
M  V30 9 1 9 10
M  V30 10 1 10 11
M  V30 11 1 11 12
M  V30 12 1 12 13
M  V30 13 1 13 14
M  V30 14 1 14 15
M  V30 15 1 14 16
M  V30 16 1 13 17 CFG=1
M  V30 17 1 13 18
M  V30 18 1 18 19
M  V30 19 1 19 20
M  V30 20 2 20 21
M  V30 21 1 21 22
M  V30 22 2 22 23
M  V30 23 1 23 24
M  V30 24 2 24 25
M  V30 25 1 25 26
M  V30 26 1 25 27
M  V30 27 2 27 28
M  V30 28 1 28 29
M  V30 29 1 9 30
M  V30 30 1 15 10
M  V30 31 1 23 19
M  V30 32 1 28 22
M  V30 33 1 1 31
M  V30 34 1 4 32
M  V30 35 1 4 33
M  V30 36 1 5 34
M  V30 37 1 5 35
M  V30 38 1 6 36
M  V30 39 1 6 37
M  V30 40 1 10 38 CFG=1
M  V30 41 1 11 39
M  V30 42 1 11 40
M  V30 43 1 12 41
M  V30 44 1 12 42
M  V30 45 1 14 43 CFG=3
M  V30 46 1 15 44
M  V30 47 1 15 45
M  V30 48 1 16 46
M  V30 49 1 17 47
M  V30 50 1 18 48
M  V30 51 1 18 49
M  V30 52 1 20 50
M  V30 53 1 26 51
M  V30 54 1 26 52
M  V30 55 1 29 53
M  V30 56 1 29 54
M  V30 57 1 30 55
M  V30 58 1 30 56
M  V30 59 1 30 57
M  V30 END BOND
M  V30 END CTAB
M  END
