
     RDKit          3D

  0  0  0  0  0  0  0  0  0  0999 V3000
M  V30 BEGIN CTAB
M  V30 COUNTS 27 27 0 0 0
M  V30 BEGIN ATOM
M  V30 1 C 4.17478 -0.139838 -0.207343 0
M  V30 2 C 2.98064 -0.862322 -0.810748 0
M  V30 3 C 1.71436 -0.0434571 -0.6235 0
M  V30 4 C 1.41695 0.199976 0.82817 0
M  V30 5 N 0.230151 0.969159 0.992839 0
M  V30 6 C -1.07324 0.564015 0.591651 0
M  V30 7 N -2.13758 1.37518 0.791415 0
M  V30 8 C -3.39554 1.05516 0.442684 0
M  V30 9 N -4.48178 1.95574 0.679851 0
M  V30 10 N -3.62236 -0.15001 -0.144996 0
M  V30 11 C -2.5982 -0.97214 -0.356243 0
M  V30 12 N -2.74344 -2.25617 -0.966886 0
M  V30 13 N -1.35281 -0.610803 0.00936669 0
M  V30 14 H 5.08832 -0.563553 -0.648517 0
M  V30 15 H 4.15828 -0.215917 0.899475 0
M  V30 16 H 4.09195 0.938575 -0.454859 0
M  V30 17 H 2.89258 -1.82356 -0.293304 0
M  V30 18 H 3.18877 -0.945017 -1.89615 0
M  V30 19 H 1.93317 0.961581 -1.07882 0
M  V30 20 H 0.900666 -0.49054 -1.2002 0
M  V30 21 H 2.28786 0.784314 1.222 0
M  V30 22 H 1.41057 -0.742982 1.4225 0
M  V30 23 H 0.316026 1.92296 1.45113 0
M  V30 24 H -4.36393 2.99106 0.696014 0
M  V30 25 H -5.42095 1.57208 0.841936 0
M  V30 26 H -2.77081 -2.36605 -1.99988 0
M  V30 27 H -2.82443 -3.10744 -0.368855 0
M  V30 END ATOM
M  V30 BEGIN BOND
M  V30 1 1 1 2
M  V30 2 1 2 3
M  V30 3 1 3 4
M  V30 4 1 4 5
M  V30 5 1 5 6
M  V30 6 2 6 7
M  V30 7 1 7 8
M  V30 8 1 8 9
M  V30 9 2 8 10
M  V30 10 1 10 11
M  V30 11 1 11 12
M  V30 12 2 11 13
M  V30 13 1 13 6
M  V30 14 1 1 14
M  V30 15 1 1 15
M  V30 16 1 1 16
M  V30 17 1 2 17
M  V30 18 1 2 18
M  V30 19 1 3 19
M  V30 20 1 3 20
M  V30 21 1 4 21
M  V30 22 1 4 22
M  V30 23 1 5 23
M  V30 24 1 9 24
M  V30 25 1 9 25
M  V30 26 1 12 26
M  V30 27 1 12 27
M  V30 END BOND
M  V30 END CTAB
M  END
