
     RDKit          3D

  0  0  0  0  0  0  0  0  0  0999 V3000
M  V30 BEGIN CTAB
M  V30 COUNTS 33 34 0 0 0
M  V30 BEGIN ATOM
M  V30 1 N 5.48835 1.37296 0.120213 0
M  V30 2 C 4.20256 0.848188 0.400604 0
M  V30 3 N 3.08889 1.5975 0.317758 0
M  V30 4 C 1.86909 1.10133 0.583588 0
M  V30 5 C 0.70483 2.01835 0.459989 0
M  V30 6 S 0.0290171 1.96761 -1.21895 0
M  V30 7 C -0.738224 0.377906 -1.62272 0
M  V30 8 C -1.98758 0.215907 -0.894111 0
M  V30 9 C -2.51118 1.19777 -0.0925257 0
M  V30 10 C -3.71129 1.06437 0.581269 0
M  V30 11 C -4.40652 -0.113145 0.433375 0
M  V30 12 C -3.87624 -1.09073 -0.3713 0
M  V30 13 C -2.67693 -0.970051 -1.05023 0
M  V30 14 C -2.23911 -2.08573 -1.86745 0
M  V30 15 F -3.1597 -3.1084 -1.80281 0
M  V30 16 F -2.00056 -1.82714 -3.17764 0
M  V30 17 F -1.0633 -2.60571 -1.32715 0
M  V30 18 N 1.78082 -0.180198 0.940367 0
M  V30 19 C 2.86065 -0.990777 1.04338 0
M  V30 20 N 4.05893 -0.435317 0.763554 0
M  V30 21 N 2.76527 -2.35732 1.42518 0
M  V30 22 H 5.59872 2.15561 -0.557601 0
M  V30 23 H 6.32356 0.969011 0.597899 0
M  V30 24 H -0.0560251 1.61743 1.15774 0
M  V30 25 H 0.952475 3.02845 0.778601 0
M  V30 26 H -0.917086 0.428511 -2.73738 0
M  V30 27 H 0.0302873 -0.385163 -1.38121 0
M  V30 28 H -1.9801 2.15529 0.0228024 0
M  V30 29 H -4.04998 1.88427 1.19161 0
M  V30 30 H -5.34309 -0.201495 0.966435 0
M  V30 31 H -4.45738 -2.01037 -0.463557 0
M  V30 32 H 3.49665 -3.01674 1.14929 0
M  V30 33 H 1.92418 -2.62216 1.98641 0
M  V30 END ATOM
M  V30 BEGIN BOND
M  V30 1 1 1 2
M  V30 2 2 2 3
M  V30 3 1 3 4
M  V30 4 1 4 5
M  V30 5 1 5 6
M  V30 6 1 6 7
M  V30 7 1 7 8
M  V30 8 2 8 9
M  V30 9 1 9 10
M  V30 10 2 10 11
M  V30 11 1 11 12
M  V30 12 2 12 13
M  V30 13 1 13 14
M  V30 14 1 14 15
M  V30 15 1 14 16
M  V30 16 1 14 17
M  V30 17 2 4 18
M  V30 18 1 18 19
M  V30 19 2 19 20
M  V30 20 1 19 21
M  V30 21 1 20 2
M  V30 22 1 13 8
M  V30 23 1 1 22
M  V30 24 1 1 23
M  V30 25 1 5 24
M  V30 26 1 5 25
M  V30 27 1 7 26
M  V30 28 1 7 27
M  V30 29 1 9 28
M  V30 30 1 10 29
M  V30 31 1 11 30
M  V30 32 1 12 31
M  V30 33 1 21 32
M  V30 34 1 21 33
M  V30 END BOND
M  V30 END CTAB
M  END
