
     RDKit          3D

  0  0  0  0  0  0  0  0  0  0999 V3000
M  V30 BEGIN CTAB
M  V30 COUNTS 59 62 0 0 0
M  V30 BEGIN ATOM
M  V30 1 N -3.84432 -5.272 2.05032 0
M  V30 2 C -3.99837 -4.43654 0.920612 0
M  V30 3 N -4.6245 -4.88423 -0.0867782 0
M  V30 4 C -3.42121 -3.07471 0.963637 0
M  V30 5 C -2.74919 -2.63907 2.08128 0
M  V30 6 C -2.20251 -1.35059 2.12124 0
M  V30 7 C -2.32301 -0.496878 1.0537 0
M  V30 8 C -1.83696 0.856965 1.15261 0
M  V30 9 C -0.871397 1.35246 0.459469 0
M  V30 10 C -0.367143 2.75804 0.549383 0
M  V30 11 C -0.402486 3.32765 -0.833928 0
M  V30 12 C 0.549546 2.63213 -1.73258 0
M  V30 13 C 0.907336 1.24768 -1.25983 0
M  V30 14 C 2.0259 0.6471 -1.54972 0
M  V30 15 C 2.33221 -0.68142 -1.06457 0
M  V30 16 C 2.67439 -1.71765 -1.93811 0
M  V30 17 C 3.04483 -2.96984 -1.50258 0
M  V30 18 C 3.0992 -3.27474 -0.153527 0
M  V30 19 C 2.76555 -2.26785 0.727331 0
M  V30 20 C 2.39638 -1.01866 0.28063 0
M  V30 21 C 3.49481 -4.60093 0.30452 0
M  V30 22 N 3.52998 -4.86732 1.69267 0
M  V30 23 N 3.81502 -5.55087 -0.500234 0
M  V30 24 C -0.108954 0.515051 -0.469207 0
M  V30 25 O -0.266666 -0.703291 -0.613766 0
M  V30 26 C -0.00607595 4.77223 -0.790383 0
M  V30 27 C -0.914851 5.70089 -1.24126 0
M  V30 28 C -0.553343 7.02751 -1.20393 0
M  V30 29 C 0.684473 7.38274 -0.725352 0
M  V30 30 C 1.60065 6.44934 -0.271175 0
M  V30 31 C 1.24094 5.118 -0.307364 0
M  V30 32 C -2.99185 -0.934363 -0.0545142 0
M  V30 33 C -3.54281 -2.22114 -0.105903 0
M  V30 34 H -4.64933 -5.72552 2.53584 0
M  V30 35 H -2.89262 -5.45127 2.42507 0
M  V30 36 H -4.8311 -4.43275 -0.977532 0
M  V30 37 H -2.66037 -3.31731 2.91439 0
M  V30 38 H -1.67006 -1.0016 3.00102 0
M  V30 39 H -2.33701 1.53947 1.89341 0
M  V30 40 H 0.670951 2.69639 0.912145 0
M  V30 41 H -1.04605 3.33018 1.20415 0
M  V30 42 H -1.42458 3.22832 -1.27424 0
M  V30 43 H 0.200313 2.5062 -2.77712 0
M  V30 44 H 1.53333 3.17368 -1.80165 0
M  V30 45 H 2.73711 1.20153 -2.1907 0
M  V30 46 H 2.63522 -1.488 -2.99858 0
M  V30 47 H 3.31035 -3.77401 -2.18305 0
M  V30 48 H 2.80732 -2.50465 1.79115 0
M  V30 49 H 2.13216 -0.218731 0.979023 0
M  V30 50 H 4.25198 -4.42562 2.29559 0
M  V30 51 H 2.84498 -5.50352 2.14533 0
M  V30 52 H 4.09742 -6.49175 -0.222989 0
M  V30 53 H -1.88449 5.4184 -1.61491 0
M  V30 54 H -1.23142 7.78762 -1.54699 0
M  V30 55 H 0.96188 8.42054 -0.697241 0
M  V30 56 H 2.57938 6.7065 0.109144 0
M  V30 57 H 1.89979 4.32375 0.0303419 0
M  V30 58 H -3.10676 -0.276084 -0.921316 0
M  V30 59 H -4.06397 -2.54742 -0.982967 0
M  V30 END ATOM
M  V30 BEGIN BOND
M  V30 1 1 1 2
M  V30 2 2 2 3 CFG=2
M  V30 3 1 2 4
M  V30 4 2 4 5
M  V30 5 1 5 6
M  V30 6 2 6 7
M  V30 7 1 7 8
M  V30 8 2 8 9
M  V30 9 1 9 10
M  V30 10 1 10 11
M  V30 11 1 11 12
M  V30 12 1 12 13
M  V30 13 2 13 14
M  V30 14 1 14 15
M  V30 15 2 15 16
M  V30 16 1 16 17
M  V30 17 2 17 18
M  V30 18 1 18 19
M  V30 19 2 19 20
M  V30 20 1 18 21
M  V30 21 1 21 22
M  V30 22 2 21 23 CFG=2
M  V30 23 1 13 24
M  V30 24 2 24 25
M  V30 25 1 11 26
M  V30 26 2 26 27
M  V30 27 1 27 28
M  V30 28 2 28 29
M  V30 29 1 29 30
M  V30 30 2 30 31
M  V30 31 1 7 32
M  V30 32 2 32 33
M  V30 33 1 33 4
M  V30 34 1 24 9
M  V30 35 1 31 26
M  V30 36 1 20 15
M  V30 37 1 1 34
M  V30 38 1 1 35
M  V30 39 1 3 36
M  V30 40 1 5 37
M  V30 41 1 6 38
M  V30 42 1 8 39
M  V30 43 1 10 40
M  V30 44 1 10 41
M  V30 45 1 11 42
M  V30 46 1 12 43
M  V30 47 1 12 44
M  V30 48 1 14 45
M  V30 49 1 16 46
M  V30 50 1 17 47
M  V30 51 1 19 48
M  V30 52 1 20 49
M  V30 53 1 22 50
M  V30 54 1 22 51
M  V30 55 1 23 52
M  V30 56 1 27 53
M  V30 57 1 28 54
M  V30 58 1 29 55
M  V30 59 1 30 56
M  V30 60 1 31 57
M  V30 61 1 32 58
M  V30 62 1 33 59
M  V30 END BOND
M  V30 END CTAB
M  END
