
     RDKit          3D

  0  0  0  0  0  0  0  0  0  0999 V3000
M  V30 BEGIN CTAB
M  V30 COUNTS 20 21 0 0 0
M  V30 BEGIN ATOM
M  V30 1 N 3.47653 0.989721 0.559257 0
M  V30 2 C 2.1469 0.555378 0.331378 0
M  V30 3 N 1.94425 -0.738535 -0.0101175 0
M  V30 4 C 0.715814 -1.239 -0.245425 0
M  V30 5 N 0.507676 -2.60501 -0.605435 0
M  V30 6 C -0.392002 -0.405664 -0.136633 0
M  V30 7 C -0.178592 0.914773 0.212457 0
M  V30 8 N 1.06987 1.35078 0.433456 0
M  V30 9 C -1.2897 1.7321 0.316954 0
M  V30 10 Cl -0.984497 3.4107 0.763771 0
M  V30 11 C -2.57639 1.26952 0.0858829 0
M  V30 12 C -2.7569 -0.0608411 -0.262734 0
M  V30 13 C -1.66192 -0.900547 -0.374269 0
M  V30 14 H 4.14248 1.1521 -0.22864 0
M  V30 15 H 3.87082 1.17307 1.51869 0
M  V30 16 H 0.319968 -3.30264 0.127645 0
M  V30 17 H 0.540938 -2.91422 -1.59221 0
M  V30 18 H -3.37465 1.97411 0.190277 0
M  V30 19 H -3.75902 -0.416178 -0.441469 0
M  V30 20 H -1.76158 -1.93963 -0.64284 0
M  V30 END ATOM
M  V30 BEGIN BOND
M  V30 1 1 1 2
M  V30 2 2 2 3
M  V30 3 1 3 4
M  V30 4 1 4 5
M  V30 5 2 4 6
M  V30 6 1 6 7
M  V30 7 2 7 8
M  V30 8 1 7 9
M  V30 9 1 9 10
M  V30 10 2 9 11
M  V30 11 1 11 12
M  V30 12 2 12 13
M  V30 13 1 8 2
M  V30 14 1 13 6
M  V30 15 1 1 14
M  V30 16 1 1 15
M  V30 17 1 5 16
M  V30 18 1 5 17
M  V30 19 1 11 18
M  V30 20 1 12 19
M  V30 21 1 13 20
M  V30 END BOND
M  V30 END CTAB
M  END
