
     RDKit          3D

  0  0  0  0  0  0  0  0  0  0999 V3000
M  V30 BEGIN CTAB
M  V30 COUNTS 25 26 0 0 0
M  V30 BEGIN ATOM
M  V30 1 N -2.93068 0.892898 -1.22985 0
M  V30 2 C -2.40732 -0.287076 -0.584967 0
M  V30 3 C -2.49545 -0.0966859 0.913595 0
M  V30 4 C -1.07053 0.296612 1.27587 0
M  V30 5 C -0.293735 -0.685806 0.400448 0
M  V30 6 C -0.941565 -0.490805 -0.926166 0
M  V30 7 F -0.475026 -1.94075 0.892784 0
M  V30 8 C 1.15082 -0.335925 0.360533 0
M  V30 9 C 2.13506 -0.861141 1.15977 0
M  V30 10 N 3.3492 -0.444828 0.975279 0
M  V30 11 C 3.61275 0.456908 0.0399394 0
M  V30 12 S 2.04168 0.734097 -0.615171 0
M  V30 13 N 4.85508 1.04259 -0.316494 0
M  V30 14 H -3.44574 0.670676 -2.09988 0
M  V30 15 H -3.52448 1.41096 -0.541236 0
M  V30 16 H -2.99737 -1.15195 -0.947861 0
M  V30 17 H -2.6678 -1.09653 1.38962 0
M  V30 18 H -3.22849 0.664934 1.21545 0
M  V30 19 H -0.91869 1.34973 0.969132 0
M  V30 20 H -0.825498 0.125038 2.32953 0
M  V30 21 H -0.550192 0.328571 -1.53069 0
M  V30 22 H -0.83599 -1.48021 -1.48336 0
M  V30 23 H 1.87629 -1.61159 1.93799 0
M  V30 24 H 5.19916 1.84642 0.22053 0
M  V30 25 H 5.38852 0.663861 -1.10393 0
M  V30 END ATOM
M  V30 BEGIN BOND
M  V30 1 1 1 2
M  V30 2 1 2 3
M  V30 3 1 3 4
M  V30 4 1 4 5
M  V30 5 1 5 6
M  V30 6 1 5 7
M  V30 7 1 5 8
M  V30 8 2 8 9
M  V30 9 1 9 10
M  V30 10 2 10 11
M  V30 11 1 11 12
M  V30 12 1 11 13
M  V30 13 1 6 2
M  V30 14 1 12 8
M  V30 15 1 1 14
M  V30 16 1 1 15
M  V30 17 1 2 16
M  V30 18 1 3 17
M  V30 19 1 3 18
M  V30 20 1 4 19
M  V30 21 1 4 20
M  V30 22 1 6 21
M  V30 23 1 6 22
M  V30 24 1 9 23
M  V30 25 1 13 24
M  V30 26 1 13 25
M  V30 END BOND
M  V30 END CTAB
M  END
