
     RDKit          3D

  0  0  0  0  0  0  0  0  0  0999 V3000
M  V30 BEGIN CTAB
M  V30 COUNTS 38 40 0 0 0
M  V30 BEGIN ATOM
M  V30 1 N -3.47144 3.68433 -0.617728 0
M  V30 2 C -3.41325 2.23733 -0.504262 0
M  V30 3 C -2.0288 1.82632 -0.453673 0
M  V30 4 C -1.64708 0.434102 -0.34073 0
M  V30 5 C -0.287195 0.09322 -0.279027 0
M  V30 6 N -0.149072 -1.24482 -0.174027 0
M  V30 7 C -1.37805 -1.80512 -0.164036 0
M  V30 8 C -2.3038 -0.760899 -0.267675 0
M  V30 9 C -3.65463 -1.01222 -0.285362 0
M  V30 10 C -4.10592 -2.3124 -0.199855 0
M  V30 11 C -3.20896 -3.34482 -0.0977636 0
M  V30 12 C -1.83943 -3.0879 -0.0798689 0
M  V30 13 C 1.09428 -1.9628 -0.0900511 0
M  V30 14 O 1.02068 -3.21648 0.00583363 0
M  V30 15 C 2.40023 -1.32589 -0.111637 0
M  V30 16 C 3.58115 -2.02985 -0.255166 0
M  V30 17 C 4.63042 -1.11732 -0.233621 0
M  V30 18 C 4.0264 0.108124 -0.0763531 0
M  V30 19 O 2.72739 -0.0685484 -0.010522 0
M  V30 20 S 4.91596 1.61657 0.0127097 0
M  V30 21 O 6.37956 1.36535 -0.131168 0
M  V30 22 O 4.4041 2.49484 -1.12124 0
M  V30 23 N 4.65018 2.44074 1.48887 0
M  V30 24 H -4.14772 4.04861 0.0686007 0
M  V30 25 H -2.54101 4.10165 -0.415535 0
M  V30 26 H -3.98211 1.99182 0.438727 0
M  V30 27 H -3.98815 1.89085 -1.41444 0
M  V30 28 H -1.52715 2.45989 0.348074 0
M  V30 29 H -1.51273 2.22102 -1.3865 0
M  V30 30 H 0.547366 0.774567 -0.309993 0
M  V30 31 H -4.32923 -0.210097 -0.36551 0
M  V30 32 H -5.17659 -2.48448 -0.216747 0
M  V30 33 H -3.53439 -4.37832 -0.0281582 0
M  V30 34 H -1.18451 -3.93895 0.0020057 0
M  V30 35 H 3.67154 -3.09384 -0.364622 0
M  V30 36 H 5.69847 -1.33079 -0.322675 0
M  V30 37 H 4.23802 1.87393 2.23828 0
M  V30 38 H 5.42547 3.06232 1.7487 0
M  V30 END ATOM
M  V30 BEGIN BOND
M  V30 1 1 1 2
M  V30 2 1 2 3
M  V30 3 1 3 4
M  V30 4 2 4 5
M  V30 5 1 5 6
M  V30 6 1 6 7
M  V30 7 2 7 8
M  V30 8 1 8 9
M  V30 9 2 9 10
M  V30 10 1 10 11
M  V30 11 2 11 12
M  V30 12 1 6 13
M  V30 13 2 13 14
M  V30 14 1 13 15
M  V30 15 2 15 16
M  V30 16 1 16 17
M  V30 17 2 17 18
M  V30 18 1 18 19
M  V30 19 1 18 20
M  V30 20 2 20 21
M  V30 21 2 20 22
M  V30 22 1 20 23
M  V30 23 1 8 4
M  V30 24 1 19 15
M  V30 25 1 12 7
M  V30 26 1 1 24
M  V30 27 1 1 25
M  V30 28 1 2 26
M  V30 29 1 2 27
M  V30 30 1 3 28
M  V30 31 1 3 29
M  V30 32 1 5 30
M  V30 33 1 9 31
M  V30 34 1 10 32
M  V30 35 1 11 33
M  V30 36 1 12 34
M  V30 37 1 16 35
M  V30 38 1 17 36
M  V30 39 1 23 37
M  V30 40 1 23 38
M  V30 END BOND
M  V30 END CTAB
M  END
