
     RDKit          3D

  0  0  0  0  0  0  0  0  0  0999 V3000
M  V30 BEGIN CTAB
M  V30 COUNTS 41 42 0 0 0
M  V30 BEGIN ATOM
M  V30 1 C -2.55334 -3.5645 -0.383115 0
M  V30 2 C -2.66298 -2.33492 -1.23493 0
M  V30 3 C -1.46776 -1.39519 -1.02445 0
M  V30 4 C -1.44404 -0.998634 0.405744 0
M  V30 5 C -0.376974 -0.0541409 0.830265 0
M  V30 6 C 1.00322 -0.521267 0.585163 0
M  V30 7 C 1.81946 -0.90816 1.61695 0
M  V30 8 C 3.11515 -1.32427 1.35572 0
M  V30 9 C 3.62095 -1.36394 0.0764437 0
M  V30 10 N 4.97561 -1.80233 -0.16554 0
M  V30 11 C 2.80546 -0.976096 -0.966013 0
M  V30 12 C 1.49746 -0.556357 -0.698228 0
M  V30 13 C -0.604711 1.36188 0.48411 0
M  V30 14 C -1.67353 1.8248 -0.238962 0
M  V30 15 C -1.80368 3.18404 -0.535503 0
M  V30 16 C -0.877026 4.08951 -0.117081 0
M  V30 17 N -0.978797 5.47737 -0.400958 0
M  V30 18 C 0.205479 3.64826 0.611513 0
M  V30 19 C 0.327673 2.30774 0.899896 0
M  V30 20 H -3.00303 -3.42493 0.62889 0
M  V30 21 H -3.05131 -4.40033 -0.936902 0
M  V30 22 H -1.46243 -3.82165 -0.313369 0
M  V30 23 H -2.66342 -2.61739 -2.3012 0
M  V30 24 H -3.6163 -1.79098 -1.04193 0
M  V30 25 H -0.585196 -2.08327 -1.22678 0
M  V30 26 H -1.45448 -0.61838 -1.77559 0
M  V30 27 H -2.42223 -0.546277 0.688456 0
M  V30 28 H -1.41052 -1.95678 1.004 0
M  V30 29 H -0.458377 -0.0467117 1.98483 0
M  V30 30 H 1.44096 -0.886999 2.654 0
M  V30 31 H 3.72555 -1.62062 2.19479 0
M  V30 32 H 5.77016 -1.17372 -0.0263452 0
M  V30 33 H 5.0912 -2.78681 -0.486785 0
M  V30 34 H 3.20174 -1.00663 -1.97351 0
M  V30 35 H 0.905537 -0.259554 -1.5571 0
M  V30 36 H -2.42221 1.11242 -0.565812 0
M  V30 37 H -2.66368 3.50658 -1.10985 0
M  V30 38 H -0.517885 6.16768 0.22569 0
M  V30 39 H -1.4988 5.84245 -1.21601 0
M  V30 40 H 0.976902 4.3533 0.967901 0
M  V30 41 H 1.19018 1.96477 1.47904 0
M  V30 END ATOM
M  V30 BEGIN BOND
M  V30 1 1 1 2
M  V30 2 1 2 3
M  V30 3 1 3 4
M  V30 4 1 4 5
M  V30 5 1 5 6
M  V30 6 2 6 7
M  V30 7 1 7 8
M  V30 8 2 8 9
M  V30 9 1 9 10
M  V30 10 1 9 11
M  V30 11 2 11 12
M  V30 12 1 5 13
M  V30 13 2 13 14
M  V30 14 1 14 15
M  V30 15 2 15 16
M  V30 16 1 16 17
M  V30 17 1 16 18
M  V30 18 2 18 19
M  V30 19 1 12 6
M  V30 20 1 19 13
M  V30 21 1 1 20
M  V30 22 1 1 21
M  V30 23 1 1 22
M  V30 24 1 2 23
M  V30 25 1 2 24
M  V30 26 1 3 25
M  V30 27 1 3 26
M  V30 28 1 4 27
M  V30 29 1 4 28
M  V30 30 1 5 29
M  V30 31 1 7 30
M  V30 32 1 8 31
M  V30 33 1 10 32
M  V30 34 1 10 33
M  V30 35 1 11 34
M  V30 36 1 12 35
M  V30 37 1 14 36
M  V30 38 1 15 37
M  V30 39 1 17 38
M  V30 40 1 17 39
M  V30 41 1 18 40
M  V30 42 1 19 41
M  V30 END BOND
M  V30 END CTAB
M  END
