
     RDKit          3D

  0  0  0  0  0  0  0  0  0  0999 V3000
M  V30 BEGIN CTAB
M  V30 COUNTS 31 32 0 0 0
M  V30 BEGIN ATOM
M  V30 1 N -0.720096 2.11437 -1.97144 0
M  V30 2 N -0.952982 0.777067 -1.48527 0
M  V30 3 C -0.568817 0.707864 -0.0680711 0
M  V30 4 C -1.44026 -0.174998 0.706343 0
M  V30 5 C -1.51708 -0.509117 1.98227 0
M  V30 6 N -2.65149 -1.22461 2.24028 0
M  V30 7 N -3.30843 -1.33723 1.08903 0
M  V30 8 C -2.63235 -0.726317 0.111704 0
M  V30 9 N -2.94669 -0.687498 -1.2875 0
M  V30 10 C 0.880903 0.484998 -0.00638412 0
M  V30 11 C 1.23526 -0.877363 -0.653297 0
M  V30 12 C 2.67546 -1.07072 -0.321864 0
M  V30 13 C 3.10824 0.216552 0.411696 0
M  V30 14 C 1.73885 0.526468 1.15821 0
M  V30 15 H -0.226739 2.61088 -1.20409 0
M  V30 16 H -1.68126 2.58979 -2.00329 0
M  V30 17 H -0.44559 0.135253 -2.09571 0
M  V30 18 H -0.73327 1.79456 0.250767 0
M  V30 19 H -0.805437 -0.303404 2.81628 0
M  V30 20 H -2.9413 -1.63696 3.16271 0
M  V30 21 H -2.31565 -1.33852 -1.88829 0
M  V30 22 H -3.65136 -0.135917 -1.74546 0
M  V30 23 H 1.35291 1.20373 -0.776621 0
M  V30 24 H 1.13999 -0.875671 -1.73028 0
M  V30 25 H 0.591863 -1.63408 -0.157323 0
M  V30 26 H 3.31422 -1.04722 -1.24592 0
M  V30 27 H 2.86141 -1.94419 0.296987 0
M  V30 28 H 3.92077 0.0965873 1.07487 0
M  V30 29 H 3.15869 1.0886 -0.270878 0
M  V30 30 H 1.90096 1.49968 1.69604 0
M  V30 31 H 1.65928 -0.32259 1.9145 0
M  V30 END ATOM
M  V30 BEGIN BOND
M  V30 1 1 1 2
M  V30 2 1 2 3
M  V30 3 1 3 4
M  V30 4 2 4 5
M  V30 5 1 5 6
M  V30 6 1 6 7
M  V30 7 2 7 8
M  V30 8 1 8 9
M  V30 9 1 3 10
M  V30 10 1 10 11
M  V30 11 1 11 12
M  V30 12 1 12 13
M  V30 13 1 13 14
M  V30 14 1 8 4
M  V30 15 1 14 10
M  V30 16 1 1 15
M  V30 17 1 1 16
M  V30 18 1 2 17
M  V30 19 1 3 18
M  V30 20 1 5 19
M  V30 21 1 6 20
M  V30 22 1 9 21
M  V30 23 1 9 22
M  V30 24 1 10 23
M  V30 25 1 11 24
M  V30 26 1 11 25
M  V30 27 1 12 26
M  V30 28 1 12 27
M  V30 29 1 13 28
M  V30 30 1 13 29
M  V30 31 1 14 30
M  V30 32 1 14 31
M  V30 END BOND
M  V30 END CTAB
M  END
