
     RDKit          3D

  0  0  0  0  0  0  0  0  0  0999 V3000
M  V30 BEGIN CTAB
M  V30 COUNTS 28 29 0 0 0
M  V30 BEGIN ATOM
M  V30 1 C -3.29256 -0.89858 1.89126 0
M  V30 2 C -2.732 -0.218277 0.670601 0
M  V30 3 C -3.55256 0.375255 -0.256915 0
M  V30 4 C -3.04557 0.997313 -1.37254 0
M  V30 5 C -1.67097 1.03936 -1.58869 0
M  V30 6 C -0.844707 0.448804 -0.666854 0
M  V30 7 C -1.36476 -0.175749 0.454409 0
M  V30 8 N -0.572705 -0.752587 1.35643 0
M  V30 9 C 0.765962 -0.721512 1.16281 0
M  V30 10 C 1.35182 -0.129471 0.0901604 0
M  V30 11 C 0.515779 0.474031 -0.85278 0
M  V30 12 N 1.09667 1.09365 -1.97205 0
M  V30 13 C 2.778 -0.11141 -0.090499 0
M  V30 14 O 3.25478 0.457992 -1.11312 0
M  V30 15 N 3.68454 -0.695519 0.811927 0
M  V30 16 N 5.07364 -0.65921 0.60399 0
M  V30 17 F -1.1432 1.64415 -2.67699 0
M  V30 18 H -3.31284 -0.209868 2.75663 0
M  V30 19 H -4.25317 -1.36051 1.65193 0
M  V30 20 H -2.57525 -1.73843 2.1132 0
M  V30 21 H -4.61833 0.362062 -0.122486 0
M  V30 22 H -3.69369 1.46007 -2.09482 0
M  V30 23 H 1.35253 -1.20685 1.93014 0
M  V30 24 H 1.38972 2.09653 -1.97855 0
M  V30 25 H 1.24231 0.52754 -2.83606 0
M  V30 26 H 3.31769 -1.16828 1.65794 0
M  V30 27 H 5.47027 0.290223 0.669633 0
M  V30 28 H 5.3786 -1.22074 -0.19872 0
M  V30 END ATOM
M  V30 BEGIN BOND
M  V30 1 1 1 2
M  V30 2 2 2 3
M  V30 3 1 3 4
M  V30 4 2 4 5
M  V30 5 1 5 6
M  V30 6 2 6 7
M  V30 7 1 7 8
M  V30 8 2 8 9
M  V30 9 1 9 10
M  V30 10 2 10 11
M  V30 11 1 11 12
M  V30 12 1 10 13
M  V30 13 2 13 14
M  V30 14 1 13 15
M  V30 15 1 15 16
M  V30 16 1 5 17
M  V30 17 1 7 2
M  V30 18 1 11 6
M  V30 19 1 1 18
M  V30 20 1 1 19
M  V30 21 1 1 20
M  V30 22 1 3 21
M  V30 23 1 4 22
M  V30 24 1 9 23
M  V30 25 1 12 24
M  V30 26 1 12 25
M  V30 27 1 15 26
M  V30 28 1 16 27
M  V30 29 1 16 28
M  V30 END BOND
M  V30 END CTAB
M  END
