
     RDKit          3D

  0  0  0  0  0  0  0  0  0  0999 V3000
M  V30 BEGIN CTAB
M  V30 COUNTS 18 18 0 0 0
M  V30 BEGIN ATOM
M  V30 1 N 3.14701 0.358092 -0.127433 0
M  V30 2 C 1.7805 0.00568762 -0.167179 0
M  V30 3 C 1.31817 -1.18466 -0.68923 0
M  V30 4 N 0.00204992 -1.45982 -0.696955 0
M  V30 5 C -0.938392 -0.638982 -0.21934 0
M  V30 6 C -0.544602 0.567785 0.316905 0
M  V30 7 C 0.800579 0.870994 0.335236 0
M  V30 8 N -1.5159 1.47071 0.836371 0
M  V30 9 C -2.38091 -1.04568 -0.277658 0
M  V30 10 F -2.88338 -1.08615 1.01241 0
M  V30 11 F -2.48017 -2.2711 -0.88875 0
M  V30 12 F -3.09499 -0.125518 -1.00584 0
M  V30 13 H 3.88702 -0.365626 -0.182204 0
M  V30 14 H 3.44087 1.34829 -0.0425931 0
M  V30 15 H 2.06001 -1.87446 -1.08607 0
M  V30 16 H 1.14406 1.82617 0.756694 0
M  V30 17 H -2.16067 2.0354 0.252221 0
M  V30 18 H -1.58124 1.56886 1.87341 0
M  V30 END ATOM
M  V30 BEGIN BOND
M  V30 1 1 1 2
M  V30 2 2 2 3
M  V30 3 1 3 4
M  V30 4 2 4 5
M  V30 5 1 5 6
M  V30 6 2 6 7
M  V30 7 1 6 8
M  V30 8 1 5 9
M  V30 9 1 9 10
M  V30 10 1 9 11
M  V30 11 1 9 12
M  V30 12 1 7 2
M  V30 13 1 1 13
M  V30 14 1 1 14
M  V30 15 1 3 15
M  V30 16 1 7 16
M  V30 17 1 8 17
M  V30 18 1 8 18
M  V30 END BOND
M  V30 END CTAB
M  END
