
     RDKit          3D

  0  0  0  0  0  0  0  0  0  0999 V3000
M  V30 BEGIN CTAB
M  V30 COUNTS 30 30 0 0 0
M  V30 BEGIN ATOM
M  V30 1 C -4.78141 0.543859 1.19455 0
M  V30 2 C -3.42297 0.572302 0.528822 0
M  V30 3 C -2.92837 -0.840084 0.312223 0
M  V30 4 C -1.58648 -0.887719 -0.343968 0
M  V30 5 N -0.555266 -0.229008 0.409648 0
M  V30 6 C 0.766024 -0.191661 -0.084354 0
M  V30 7 C 1.13714 -0.767224 -1.28269 0
M  V30 8 C 2.43702 -0.699684 -1.71312 0
M  V30 9 C 3.42289 -0.0688754 -0.991715 0
M  V30 10 C 3.03957 0.505824 0.210251 0
M  V30 11 C 1.74288 0.450096 0.660686 0
M  V30 12 N 4.04516 1.17415 0.991063 0
M  V30 13 N 4.76729 0.00379128 -1.43182 0
M  V30 14 H -4.96143 1.51838 1.69742 0
M  V30 15 H -4.84841 -0.307673 1.8879 0
M  V30 16 H -5.55753 0.451905 0.410186 0
M  V30 17 H -2.70603 1.18568 1.10433 0
M  V30 18 H -3.56009 1.08672 -0.445071 0
M  V30 19 H -2.93874 -1.39801 1.25984 0
M  V30 20 H -3.65548 -1.32417 -0.37958 0
M  V30 21 H -1.63438 -0.460281 -1.36915 0
M  V30 22 H -1.29444 -1.97615 -0.389222 0
M  V30 23 H -0.786175 0.212918 1.30745 0
M  V30 24 H 0.358979 -1.26032 -1.84344 0
M  V30 25 H 2.72139 -1.15445 -2.65619 0
M  V30 26 H 1.4706 0.917029 1.62059 0
M  V30 27 H 4.60601 0.691095 1.71954 0
M  V30 28 H 4.19027 2.18702 0.790006 0
M  V30 29 H 5.03364 -0.351743 -2.3609 0
M  V30 30 H 5.47833 0.416279 -0.813268 0
M  V30 END ATOM
M  V30 BEGIN BOND
M  V30 1 1 1 2
M  V30 2 1 2 3
M  V30 3 1 3 4
M  V30 4 1 4 5
M  V30 5 1 5 6
M  V30 6 2 6 7
M  V30 7 1 7 8
M  V30 8 2 8 9
M  V30 9 1 9 10
M  V30 10 2 10 11
M  V30 11 1 10 12
M  V30 12 1 9 13
M  V30 13 1 11 6
M  V30 14 1 1 14
M  V30 15 1 1 15
M  V30 16 1 1 16
M  V30 17 1 2 17
M  V30 18 1 2 18
M  V30 19 1 3 19
M  V30 20 1 3 20
M  V30 21 1 4 21
M  V30 22 1 4 22
M  V30 23 1 5 23
M  V30 24 1 7 24
M  V30 25 1 8 25
M  V30 26 1 11 26
M  V30 27 1 12 27
M  V30 28 1 12 28
M  V30 29 1 13 29
M  V30 30 1 13 30
M  V30 END BOND
M  V30 END CTAB
M  END
