
     RDKit          3D

  0  0  0  0  0  0  0  0  0  0999 V3000
M  V30 BEGIN CTAB
M  V30 COUNTS 52 51 0 0 0
M  V30 BEGIN ATOM
M  V30 1 C -0.999803 1.98949 1.93344 0 CFG=1
M  V30 2 N -1.56934 1.12229 2.96474 0
M  V30 3 C 0.310878 1.37631 1.56199 0
M  V30 4 S 1.24342 2.2115 0.307632 0
M  V30 5 S 0.555129 2.09188 -1.63818 0
M  V30 6 C 1.17809 0.784938 -2.65956 0
M  V30 7 C 0.848464 -0.616593 -2.32945 0 CFG=2
M  V30 8 N -0.561517 -0.934472 -2.29814 0
M  V30 9 C 1.5229 -1.10299 -1.13138 0
M  V30 10 O 0.853927 -1.853 -0.346344 0
M  V30 11 N 2.86314 -0.753862 -0.858212 0
M  V30 12 C 3.47443 -1.27387 0.357338 0
M  V30 13 C 4.86409 -0.798583 0.460974 0
M  V30 14 O 5.34464 -0.071714 -0.414824 0
M  V30 15 O 5.6136 -1.18464 1.55812 0
M  V30 16 C 6.94703 -0.745829 1.68136 0
M  V30 17 C 7.72384 -1.25956 0.489509 0
M  V30 18 C -1.94707 2.18925 0.840956 0
M  V30 19 O -1.78567 3.09205 -0.015739 0
M  V30 20 N -3.08731 1.36318 0.713881 0
M  V30 21 C -4.05759 1.51817 -0.346999 0
M  V30 22 C -5.15131 0.519845 -0.242798 0
M  V30 23 O -5.19131 -0.350641 0.666904 0
M  V30 24 O -6.14476 0.565563 -1.18265 0
M  V30 25 C -7.24663 -0.307923 -1.22368 0
M  V30 26 C -6.72255 -1.71839 -1.38231 0
M  V30 27 H -0.781514 2.97815 2.41004 0
M  V30 28 H -0.940619 0.354689 3.2312 0
M  V30 29 H -1.86547 1.69282 3.77711 0
M  V30 30 H 0.0456481 0.341405 1.18736 0
M  V30 31 H 0.924644 1.14622 2.47733 0
M  V30 32 H 2.28369 0.943976 -2.78199 0
M  V30 33 H 0.700431 0.957933 -3.69622 0
M  V30 34 H 1.24918 -1.22187 -3.24695 0
M  V30 35 H -0.905582 -1.04316 -1.31267 0
M  V30 36 H -0.804412 -1.78545 -2.83137 0
M  V30 37 H 3.37602 -0.146361 -1.52037 0
M  V30 38 H 3.51778 -2.3905 0.333909 0
M  V30 39 H 2.86241 -0.966934 1.22161 0
M  V30 40 H 6.94817 0.378165 1.65892 0
M  V30 41 H 7.40262 -1.1217 2.62216 0
M  V30 42 H 8.52835 -1.96407 0.834964 0
M  V30 43 H 7.08859 -1.78617 -0.23376 0
M  V30 44 H 8.23045 -0.40018 -0.0205828 0
M  V30 45 H -3.23521 0.609079 1.41466 0
M  V30 46 H -4.50288 2.55458 -0.348857 0
M  V30 47 H -3.50693 1.43713 -1.3058 0
M  V30 48 H -7.89519 -0.211659 -0.325714 0
M  V30 49 H -7.82411 -0.0762895 -2.16265 0
M  V30 50 H -5.73902 -1.66967 -1.85234 0
M  V30 51 H -7.45443 -2.33835 -1.95051 0
M  V30 52 H -6.58135 -2.12419 -0.345349 0
M  V30 END ATOM
M  V30 BEGIN BOND
M  V30 1 1 1 2
M  V30 2 1 1 3
M  V30 3 1 3 4
M  V30 4 1 4 5
M  V30 5 1 5 6
M  V30 6 1 6 7
M  V30 7 1 7 8
M  V30 8 1 7 9
M  V30 9 2 9 10
M  V30 10 1 9 11
M  V30 11 1 11 12
M  V30 12 1 12 13
M  V30 13 2 13 14
M  V30 14 1 13 15
M  V30 15 1 15 16
M  V30 16 1 16 17
M  V30 17 1 1 18
M  V30 18 2 18 19
M  V30 19 1 18 20
M  V30 20 1 20 21
M  V30 21 1 21 22
M  V30 22 2 22 23
M  V30 23 1 22 24
M  V30 24 1 24 25
M  V30 25 1 25 26
M  V30 26 1 1 27 CFG=1
M  V30 27 1 2 28
M  V30 28 1 2 29
M  V30 29 1 3 30
M  V30 30 1 3 31
M  V30 31 1 6 32
M  V30 32 1 6 33
M  V30 33 1 7 34 CFG=3
M  V30 34 1 8 35
M  V30 35 1 8 36
M  V30 36 1 11 37
M  V30 37 1 12 38
M  V30 38 1 12 39
M  V30 39 1 16 40
M  V30 40 1 16 41
M  V30 41 1 17 42
M  V30 42 1 17 43
M  V30 43 1 17 44
M  V30 44 1 20 45
M  V30 45 1 21 46
M  V30 46 1 21 47
M  V30 47 1 25 48
M  V30 48 1 25 49
M  V30 49 1 26 50
M  V30 50 1 26 51
M  V30 51 1 26 52
M  V30 END BOND
M  V30 END CTAB
M  END
