
     RDKit          3D

  0  0  0  0  0  0  0  0  0  0999 V3000
M  V30 BEGIN CTAB
M  V30 COUNTS 25 25 0 0 0
M  V30 BEGIN ATOM
M  V30 1 O -4.0428 -0.784728 1.2257 0
M  V30 2 C -3.23419 -0.0045355 0.596753 0 CFG=2
M  V30 3 C -2.53731 -0.575637 -0.646631 0
M  V30 4 C -1.35818 0.298678 -0.27064 0 CFG=1
M  V30 5 C -1.81986 0.16847 1.16664 0
M  V30 6 C -0.0108704 -0.301336 -0.553726 0
M  V30 7 N 1.00933 0.639738 -0.146585 0
M  V30 8 C 2.40698 0.352598 -0.290926 0
M  V30 9 N 2.81262 -0.856895 -0.0674063 0
M  V30 10 N 4.1654 -1.15795 -0.201663 0
M  V30 11 N 3.31641 1.36951 -0.668522 0
M  V30 12 H -4.77373 -0.496199 1.63815 0
M  V30 13 H -3.6136 1.01081 0.319552 0
M  V30 14 H -3.02382 -0.344332 -1.5913 0
M  V30 15 H -2.29737 -1.63493 -0.438714 0
M  V30 16 H -1.46852 1.3623 -0.587785 0
M  V30 17 H -1.51448 -0.818653 1.61867 0
M  V30 18 H -1.68725 1.04236 1.80062 0
M  V30 19 H 0.144494 -0.529012 -1.61808 0
M  V30 20 H 0.0627487 -1.24383 0.0309276 0
M  V30 21 H 0.750054 1.55908 0.26592 0
M  V30 22 H 4.89062 -0.451668 -0.428887 0
M  V30 23 H 4.49303 -2.14885 -0.0699439 0
M  V30 24 H 3.49692 2.16628 -0.019265 0
M  V30 25 H 3.83338 1.37874 -1.57564 0
M  V30 END ATOM
M  V30 BEGIN BOND
M  V30 1 1 1 2
M  V30 2 1 2 3
M  V30 3 1 3 4
M  V30 4 1 4 5
M  V30 5 1 4 6
M  V30 6 1 6 7
M  V30 7 1 7 8
M  V30 8 2 8 9 CFG=2
M  V30 9 1 9 10
M  V30 10 1 8 11
M  V30 11 1 5 2
M  V30 12 1 1 12
M  V30 13 1 2 13 CFG=3
M  V30 14 1 3 14
M  V30 15 1 3 15
M  V30 16 1 4 16 CFG=3
M  V30 17 1 5 17
M  V30 18 1 5 18
M  V30 19 1 6 19
M  V30 20 1 6 20
M  V30 21 1 7 21
M  V30 22 1 10 22
M  V30 23 1 10 23
M  V30 24 1 11 24
M  V30 25 1 11 25
M  V30 END BOND
M  V30 END CTAB
M  END
