
     RDKit          3D

  0  0  0  0  0  0  0  0  0  0999 V3000
M  V30 BEGIN CTAB
M  V30 COUNTS 28 30 0 0 0
M  V30 BEGIN ATOM
M  V30 1 N 3.80732 1.81922 -0.160856 0
M  V30 2 C 3.58801 0.392132 -0.203169 0
M  V30 3 C 2.1492 0.0708957 -0.0249798 0
M  V30 4 C 1.19766 1.04351 0.152566 0
M  V30 5 N -0.111658 0.744523 0.314367 0
M  V30 6 C -0.513303 -0.529794 0.304413 0
M  V30 7 N 0.414906 -1.48362 0.130962 0
M  V30 8 C 1.72069 -1.23898 -0.0330985 0
M  V30 9 N 2.70386 -2.25033 -0.216824 0
M  V30 10 C -1.96805 -0.883311 0.483161 0
M  V30 11 C -2.66768 -0.112219 1.64733 0
M  V30 12 C -3.03469 0.0286903 0.285176 0
M  V30 13 C -3.29076 1.10383 -0.588035 0
M  V30 14 C -4.28726 -0.0808207 -0.408018 0
M  V30 15 H 3.25031 2.26369 -0.919001 0
M  V30 16 H 4.84145 1.97036 -0.348079 0
M  V30 17 H 4.22323 -0.131869 0.54512 0
M  V30 18 H 3.91124 -0.0346694 -1.19739 0
M  V30 19 H 1.49515 2.08286 0.16476 0
M  V30 20 H 3.42645 -2.18349 -0.944307 0
M  V30 21 H 2.71137 -3.09743 0.395611 0
M  V30 22 H -2.17143 -1.9784 0.455203 0
M  V30 23 H -3.18745 -0.77989 2.38242 0
M  V30 24 H -2.02442 0.633195 2.17812 0
M  V30 25 H -2.83395 1.16919 -1.61114 0
M  V30 26 H -3.74182 2.09066 -0.284362 0
M  V30 27 H -5.2514 0.143054 0.0513508 0
M  V30 28 H -4.35697 -0.770962 -1.28448 0
M  V30 END ATOM
M  V30 BEGIN BOND
M  V30 1 1 1 2
M  V30 2 1 2 3
M  V30 3 2 3 4
M  V30 4 1 4 5
M  V30 5 2 5 6
M  V30 6 1 6 7
M  V30 7 2 7 8
M  V30 8 1 8 9
M  V30 9 1 6 10
M  V30 10 1 10 11
M  V30 11 1 11 12
M  V30 12 1 12 13
M  V30 13 1 13 14
M  V30 14 1 8 3
M  V30 15 1 12 10
M  V30 16 1 14 12
M  V30 17 1 1 15
M  V30 18 1 1 16
M  V30 19 1 2 17
M  V30 20 1 2 18
M  V30 21 1 4 19
M  V30 22 1 9 20
M  V30 23 1 9 21
M  V30 24 1 10 22
M  V30 25 1 11 23
M  V30 26 1 11 24
M  V30 27 1 13 25
M  V30 28 1 13 26
M  V30 29 1 14 27
M  V30 30 1 14 28
M  V30 END BOND
M  V30 END CTAB
M  END
