
     RDKit          3D

  0  0  0  0  0  0  0  0  0  0999 V3000
M  V30 BEGIN CTAB
M  V30 COUNTS 35 37 0 0 0
M  V30 BEGIN ATOM
M  V30 1 Br -6.55809 2.73891 1.48944 0
M  V30 2 C -5.53009 1.46383 0.524879 0
M  V30 3 C -6.07403 0.770559 -0.53218 0
M  V30 4 C -5.26241 -0.151536 -1.19678 0
M  V30 5 C -3.95924 -0.396557 -0.848186 0
M  V30 6 C -3.44216 0.321687 0.224504 0
M  V30 7 C -4.22801 1.2451 0.903065 0
M  V30 8 C -2.05991 0.0632073 0.595789 0
M  V30 9 C -1.2836 -0.800517 -0.0190547 0
M  V30 10 C -1.81714 -1.56273 -1.15008 0
M  V30 11 O -3.14014 -1.29256 -1.47927 0
M  V30 12 C 0.112667 -1.03103 0.391038 0
M  V30 13 O 0.816882 -1.8676 -0.227499 0
M  V30 14 O 0.695122 -0.361855 1.43907 0
M  V30 15 C 1.99363 -0.498604 1.90639 0
M  V30 16 C 3.06139 -0.179706 0.938676 0
M  V30 17 N 2.84789 0.3356 -0.281308 0
M  V30 18 C 3.90462 0.596169 -1.10541 0
M  V30 19 N 3.62556 1.13951 -2.38217 0
M  V30 20 N 5.15827 0.338428 -0.699239 0
M  V30 21 C 5.38239 -0.170665 0.503692 0
M  V30 22 N 4.33233 -0.421554 1.30298 0
M  V30 23 N 6.71718 -0.438304 0.919584 0
M  V30 24 H -7.09565 0.927682 -0.845519 0
M  V30 25 H -5.69764 -0.695045 -2.02973 0
M  V30 26 H -3.79986 1.77639 1.71859 0
M  V30 27 H -1.63733 0.609077 1.42533 0
M  V30 28 H -1.19369 -1.29734 -2.05386 0
M  V30 29 H -1.65662 -2.67205 -1.03621 0
M  V30 30 H 2.21253 -1.53116 2.29735 0
M  V30 31 H 2.08483 0.153508 2.82366 0
M  V30 32 H 3.74805 0.56748 -3.24539 0
M  V30 33 H 3.2953 2.11465 -2.47554 0
M  V30 34 H 7.10978 0.0355375 1.78486 0
M  V30 35 H 7.3372 -1.07896 0.418528 0
M  V30 END ATOM
M  V30 BEGIN BOND
M  V30 1 1 1 2
M  V30 2 2 2 3
M  V30 3 1 3 4
M  V30 4 2 4 5
M  V30 5 1 5 6
M  V30 6 2 6 7
M  V30 7 1 6 8
M  V30 8 2 8 9
M  V30 9 1 9 10
M  V30 10 1 10 11
M  V30 11 1 9 12
M  V30 12 2 12 13
M  V30 13 1 12 14
M  V30 14 1 14 15
M  V30 15 1 15 16
M  V30 16 2 16 17
M  V30 17 1 17 18
M  V30 18 1 18 19
M  V30 19 2 18 20
M  V30 20 1 20 21
M  V30 21 2 21 22
M  V30 22 1 21 23
M  V30 23 1 7 2
M  V30 24 1 22 16
M  V30 25 1 11 5
M  V30 26 1 3 24
M  V30 27 1 4 25
M  V30 28 1 7 26
M  V30 29 1 8 27
M  V30 30 1 10 28
M  V30 31 1 10 29
M  V30 32 1 15 30
M  V30 33 1 15 31
M  V30 34 1 19 32
M  V30 35 1 19 33
M  V30 36 1 23 34
M  V30 37 1 23 35
M  V30 END BOND
M  V30 END CTAB
M  END
