
     RDKit          3D

  0  0  0  0  0  0  0  0  0  0999 V3000
M  V30 BEGIN CTAB
M  V30 COUNTS 28 28 0 0 0
M  V30 BEGIN ATOM
M  V30 1 N 3.36894 1.31546 -1.27527 0
M  V30 2 N 3.52973 0.158066 -0.608308 0
M  V30 3 C 2.81257 -0.648452 0.0160963 0
M  V30 4 N 1.43071 -0.600403 0.256353 0
M  V30 5 C 0.526746 0.470349 -0.0763582 0
M  V30 6 C -0.869244 0.224487 0.438211 0
M  V30 7 O -0.843769 0.101872 1.84451 0
M  V30 8 C -1.7313 1.3951 0.0840455 0
M  V30 9 C -3.13558 0.84591 -0.106701 0
M  V30 10 C -3.01138 -0.656551 -0.223749 0
M  V30 11 C -1.53302 -0.98533 -0.188204 0
M  V30 12 N 3.50778 -1.78826 0.57919 0
M  V30 13 H 4.18084 1.95469 -1.41048 0
M  V30 14 H 2.46573 1.62202 -1.67308 0
M  V30 15 H 0.959156 -1.42989 0.730839 0
M  V30 16 H 0.461124 0.489121 -1.19642 0
M  V30 17 H 0.854079 1.45466 0.259094 0
M  V30 18 H -0.482681 -0.793945 2.0633 0
M  V30 19 H -1.74258 2.17378 0.881171 0
M  V30 20 H -1.43399 1.90602 -0.855841 0
M  V30 21 H -3.62117 1.32637 -0.977047 0
M  V30 22 H -3.72074 1.09522 0.803256 0
M  V30 23 H -3.52794 -1.14435 0.645294 0
M  V30 24 H -3.47301 -1.04974 -1.13453 0
M  V30 25 H -1.11885 -1.21423 -1.1901 0
M  V30 26 H -1.34328 -1.85391 0.480101 0
M  V30 27 H 3.88307 -1.74316 1.54767 0
M  V30 28 H 3.60805 -2.62492 -0.019122 0
M  V30 END ATOM
M  V30 BEGIN BOND
M  V30 1 1 1 2
M  V30 2 2 2 3 CFG=2
M  V30 3 1 3 4
M  V30 4 1 4 5
M  V30 5 1 5 6
M  V30 6 1 6 7
M  V30 7 1 6 8
M  V30 8 1 8 9
M  V30 9 1 9 10
M  V30 10 1 10 11
M  V30 11 1 3 12
M  V30 12 1 11 6
M  V30 13 1 1 13
M  V30 14 1 1 14
M  V30 15 1 4 15
M  V30 16 1 5 16
M  V30 17 1 5 17
M  V30 18 1 7 18
M  V30 19 1 8 19
M  V30 20 1 8 20
M  V30 21 1 9 21
M  V30 22 1 9 22
M  V30 23 1 10 23
M  V30 24 1 10 24
M  V30 25 1 11 25
M  V30 26 1 11 26
M  V30 27 1 12 27
M  V30 28 1 12 28
M  V30 END BOND
M  V30 END CTAB
M  END
