
     RDKit          3D

  0  0  0  0  0  0  0  0  0  0999 V3000
M  V30 BEGIN CTAB
M  V30 COUNTS 31 33 0 0 0
M  V30 BEGIN ATOM
M  V30 1 N 5.86593 1.616 -0.908933 0
M  V30 2 C 4.75475 0.75264 -0.921538 0
M  V30 3 C 4.74585 -0.64206 -0.917281 0
M  V30 4 N 3.46195 -1.07991 -0.93348 0
M  V30 5 N 2.70073 -0.00998382 -0.947266 0
M  V30 6 N 3.44817 1.09373 -0.940507 0
M  V30 7 C 1.23196 -0.0772768 -0.966822 0
M  V30 8 C 0.684985 -0.0985932 0.392956 0
M  V30 9 O 1.56311 -0.0659667 1.32984 0
M  V30 10 N -0.684162 -0.150386 0.756557 0
M  V30 11 C -1.1042 -0.168318 2.05004 0
M  V30 12 C -2.47124 -0.218752 2.08405 0
M  V30 13 C -2.91523 -0.232584 0.778349 0
M  V30 14 C -1.78117 -0.189312 -0.00623968 0
M  V30 15 C -1.96255 -0.192978 -1.37274 0
M  V30 16 C -3.23064 -0.23834 -1.92987 0
M  V30 17 C -4.35139 -0.281266 -1.12804 0
M  V30 18 C -4.1841 -0.278043 0.241165 0
M  V30 19 N -3.29462 -0.25138 3.26678 0
M  V30 20 H 6.53599 1.60382 -0.123094 0
M  V30 21 H 5.98944 2.2716 -1.72496 0
M  V30 22 H 5.64443 -1.21813 -0.903103 0
M  V30 23 H 0.935062 -1.03863 -1.46627 0
M  V30 24 H 0.921585 0.81352 -1.55218 0
M  V30 25 H -0.489177 -0.147418 2.95327 0
M  V30 26 H -1.14476 -0.160628 -2.07218 0
M  V30 27 H -3.36003 -0.240736 -3.01003 0
M  V30 28 H -5.33287 -0.316289 -1.57364 0
M  V30 29 H -5.02104 -0.310236 0.923908 0
M  V30 30 H -4.21252 0.227785 3.30274 0
M  V30 31 H -2.94425 -0.771871 4.09283 0
M  V30 END ATOM
M  V30 BEGIN BOND
M  V30 1 1 1 2
M  V30 2 1 2 3
M  V30 3 2 3 4
M  V30 4 1 4 5
M  V30 5 1 5 6
M  V30 6 1 5 7
M  V30 7 1 7 8
M  V30 8 2 8 9
M  V30 9 1 8 10
M  V30 10 1 10 11
M  V30 11 2 11 12
M  V30 12 1 12 13
M  V30 13 2 13 14
M  V30 14 1 14 15
M  V30 15 2 15 16
M  V30 16 1 16 17
M  V30 17 2 17 18
M  V30 18 1 12 19
M  V30 19 2 6 2
M  V30 20 1 14 10
M  V30 21 1 18 13
M  V30 22 1 1 20
M  V30 23 1 1 21
M  V30 24 1 3 22
M  V30 25 1 7 23
M  V30 26 1 7 24
M  V30 27 1 11 25
M  V30 28 1 15 26
M  V30 29 1 16 27
M  V30 30 1 17 28
M  V30 31 1 18 29
M  V30 32 1 19 30
M  V30 33 1 19 31
M  V30 END BOND
M  V30 END CTAB
M  END
