
     RDKit          3D

  0  0  0  0  0  0  0  0  0  0999 V3000
M  V30 BEGIN CTAB
M  V30 COUNTS 16 16 0 0 0
M  V30 BEGIN ATOM
M  V30 1 N -2.35187 -0.530788 0.268761 0
M  V30 2 C -1.20393 0.279306 0.0536287 0
M  V30 3 N -1.3206 1.61981 -0.147017 0
M  V30 4 C -0.197078 2.34775 -0.34949 0
M  V30 5 Cl -0.340058 4.08514 -0.614341 0
M  V30 6 N 1.00072 1.71273 -0.344142 0
M  V30 7 C 1.15388 0.403135 -0.150004 0
M  V30 8 N 2.41362 -0.249522 -0.144537 0
M  V30 9 C 0.0305667 -0.366141 0.0587461 0
M  V30 10 N 0.161265 -1.7683 0.275941 0 CHG=1
M  V30 11 O 0.450979 -2.67841 -0.686621 0 CHG=-1
M  V30 12 O -0.0181942 -2.18869 1.46032 0
M  V30 13 H -2.32857 -1.56259 0.144647 0
M  V30 14 H -3.24912 -0.0918156 0.556622 0
M  V30 15 H 2.97358 -0.489963 0.692843 0
M  V30 16 H 2.8248 -0.521645 -1.07536 0
M  V30 END ATOM
M  V30 BEGIN BOND
M  V30 1 1 1 2
M  V30 2 2 2 3
M  V30 3 1 3 4
M  V30 4 1 4 5
M  V30 5 2 4 6
M  V30 6 1 6 7
M  V30 7 1 7 8
M  V30 8 2 7 9
M  V30 9 1 9 10
M  V30 10 1 10 11
M  V30 11 2 10 12
M  V30 12 1 9 2
M  V30 13 1 1 13
M  V30 14 1 1 14
M  V30 15 1 8 15
M  V30 16 1 8 16
M  V30 END BOND
M  V30 END CTAB
M  END
