
     RDKit          3D

  0  0  0  0  0  0  0  0  0  0999 V3000
M  V30 BEGIN CTAB
M  V30 COUNTS 29 29 0 0 0
M  V30 BEGIN ATOM
M  V30 1 N 0.767034 0.265008 2.50649 0
M  V30 2 N 0.94418 -0.381761 1.30182 0
M  V30 3 C 0.485874 0.19842 0.12868 0
M  V30 4 C -0.941728 0.178189 -0.243338 0
M  V30 5 C -1.3763 0.811498 -1.41746 0
M  V30 6 N -2.6441 0.919951 -1.79548 0
M  V30 7 C -3.63268 0.413087 -1.05404 0
M  V30 8 C -3.289 -0.23127 0.126227 0
M  V30 9 C -1.95228 -0.343357 0.517451 0
M  V30 10 N -1.71604 -1.06527 1.71654 0
M  V30 11 C 1.45948 0.189278 -1.04203 0
M  V30 12 C 2.72017 0.990835 -0.664329 0
M  V30 13 C 1.95432 -1.24366 -1.27164 0
M  V30 14 H 0.203986 1.13071 2.41978 0
M  V30 15 H 1.68479 0.462942 2.9628 0
M  V30 16 H 1.11633 -1.39514 1.34905 0
M  V30 17 H 0.583012 1.38084 0.411826 0
M  V30 18 H -0.653793 1.26111 -2.07949 0
M  V30 19 H -4.65033 0.522632 -1.39323 0
M  V30 20 H -4.07774 -0.632313 0.71099 0
M  V30 21 H -2.1068 -0.714317 2.62587 0
M  V30 22 H -1.16621 -1.95501 1.77089 0
M  V30 23 H 1.06259 0.638019 -1.94006 0
M  V30 24 H 3.40368 0.856429 -1.51213 0
M  V30 25 H 3.13978 0.421324 0.196195 0
M  V30 26 H 2.4559 2.03007 -0.416196 0
M  V30 27 H 2.99156 -1.30028 -0.898278 0
M  V30 28 H 1.86441 -1.43776 -2.3586 0
M  V30 29 H 1.36991 -1.9702 -0.65829 0
M  V30 END ATOM
M  V30 BEGIN BOND
M  V30 1 1 1 2
M  V30 2 1 2 3
M  V30 3 1 3 4
M  V30 4 2 4 5
M  V30 5 1 5 6
M  V30 6 2 6 7
M  V30 7 1 7 8
M  V30 8 2 8 9
M  V30 9 1 9 10
M  V30 10 1 3 11
M  V30 11 1 11 12
M  V30 12 1 11 13
M  V30 13 1 9 4
M  V30 14 1 1 14
M  V30 15 1 1 15
M  V30 16 1 2 16
M  V30 17 1 3 17
M  V30 18 1 5 18
M  V30 19 1 7 19
M  V30 20 1 8 20
M  V30 21 1 10 21
M  V30 22 1 10 22
M  V30 23 1 11 23
M  V30 24 1 12 24
M  V30 25 1 12 25
M  V30 26 1 12 26
M  V30 27 1 13 27
M  V30 28 1 13 28
M  V30 29 1 13 29
M  V30 END BOND
M  V30 END CTAB
M  END
