
     RDKit          3D

  0  0  0  0  0  0  0  0  0  0999 V3000
M  V30 BEGIN CTAB
M  V30 COUNTS 68 72 0 0 0
M  V30 BEGIN ATOM
M  V30 1 C 1.45482 0.00367055 3.64428 0
M  V30 2 C 0.151017 0.105262 2.82137 0
M  V30 3 C 0.577699 0.326042 1.42908 0 CFG=1
M  V30 4 C 1.42528 -0.909778 1.0721 0
M  V30 5 N 2.01385 -0.748356 -0.23665 0
M  V30 6 C 1.05936 -0.554268 -1.30617 0
M  V30 7 C -0.277466 -0.362027 -0.669036 0
M  V30 8 N -0.326514 0.588559 0.411188 0
M  V30 9 C -1.65296 1.03265 0.701049 0
M  V30 10 C -2.46641 0.0168024 1.3875 0
M  V30 11 C -3.86174 -0.23002 0.877687 0
M  V30 12 N -4.50856 0.860433 0.270209 0
M  V30 13 C -3.72081 2.09561 0.109102 0
M  V30 14 C -2.40479 1.57863 -0.490733 0
M  V30 15 C -5.81391 0.885128 -0.211258 0
M  V30 16 O -6.1429 2.0683 -0.723582 0
M  V30 17 C -6.8635 -0.06133 -0.278468 0
M  V30 18 C -6.79033 -1.34246 0.164361 0
M  V30 19 C -7.88923 -2.22334 0.0503229 0
M  V30 20 C -9.07646 -1.81818 -0.513654 0
M  V30 21 Cl -10.4488 -2.91475 -0.658633 0
M  V30 22 N -9.13098 -0.556148 -0.943329 0
M  V30 23 C -8.09542 0.299942 -0.844292 0
M  V30 24 N -8.31595 1.59541 -1.34729 0
M  V30 25 C 3.41692 -0.774377 -0.444104 0
M  V30 26 N 4.0646 0.291091 -0.989048 0
M  V30 27 C 5.39146 0.283295 -1.1991 0
M  V30 28 N 6.07368 1.40408 -1.77402 0
M  V30 29 C 6.16325 -0.808527 -0.871437 0
M  V30 30 N 5.54867 -1.87061 -0.332941 0
M  V30 31 C 4.20088 -1.85947 -0.120902 0
M  V30 32 Cl 3.40998 -3.26271 0.587478 0
M  V30 33 C 7.61619 -0.7915 -1.11665 0
M  V30 34 N 8.44955 -1.8114 -0.833057 0
M  V30 35 N 9.68627 -1.4853 -1.17012 0
M  V30 36 C 9.58851 -0.233324 -1.66984 0
M  V30 37 C 10.7859 0.509842 -2.1722 0
M  V30 38 O 8.33705 0.156279 -1.6252 0
M  V30 39 H 1.29077 0.399428 4.65906 0
M  V30 40 H 1.77483 -1.04827 3.76075 0
M  V30 41 H 2.24227 0.626861 3.16979 0
M  V30 42 H -0.312681 -0.891156 2.94638 0
M  V30 43 H -0.398032 0.930315 3.30035 0
M  V30 44 H 1.37135 1.16217 1.38416 0
M  V30 45 H 0.78831 -1.79054 1.10047 0
M  V30 46 H 2.28045 -0.992283 1.79594 0
M  V30 47 H 1.35008 0.276381 -1.99357 0
M  V30 48 H 1.0155 -1.5151 -1.87441 0
M  V30 49 H -0.623801 -1.33855 -0.273673 0
M  V30 50 H -0.97293 -0.127178 -1.50168 0
M  V30 51 H -1.62085 1.92755 1.40932 0
M  V30 52 H -1.92993 -0.974151 1.26176 0
M  V30 53 H -2.4892 0.191455 2.47742 0
M  V30 54 H -4.44576 -0.547677 1.76427 0
M  V30 55 H -3.83126 -1.09628 0.173904 0
M  V30 56 H -4.2075 2.83937 -0.50443 0
M  V30 57 H -3.51851 2.46441 1.12703 0
M  V30 58 H -1.861 2.42062 -0.972124 0
M  V30 59 H -2.71103 0.808843 -1.2249 0
M  V30 60 H -5.93559 -1.79755 0.62264 0
M  V30 61 H -7.83216 -3.24335 0.402064 0
M  V30 62 H -8.00104 1.80024 -2.31785 0
M  V30 63 H -8.77522 2.36186 -0.808063 0
M  V30 64 H 6.29485 2.21785 -1.17939 0
M  V30 65 H 6.34211 1.39933 -2.77423 0
M  V30 66 H 10.4152 1.54464 -2.42669 0
M  V30 67 H 11.5421 0.551088 -1.38053 0
M  V30 68 H 11.1304 0.0301646 -3.10778 0
M  V30 END ATOM
M  V30 BEGIN BOND
M  V30 1 1 1 2
M  V30 2 1 2 3
M  V30 3 1 3 4
M  V30 4 1 4 5
M  V30 5 1 5 6
M  V30 6 1 6 7
M  V30 7 1 7 8
M  V30 8 1 8 9
M  V30 9 1 9 10
M  V30 10 1 10 11
M  V30 11 1 11 12
M  V30 12 1 12 13
M  V30 13 1 13 14
M  V30 14 1 12 15
M  V30 15 2 15 16
M  V30 16 1 15 17
M  V30 17 2 17 18
M  V30 18 1 18 19
M  V30 19 2 19 20
M  V30 20 1 20 21
M  V30 21 1 20 22
M  V30 22 2 22 23
M  V30 23 1 23 24
M  V30 24 1 5 25
M  V30 25 2 25 26
M  V30 26 1 26 27
M  V30 27 1 27 28
M  V30 28 2 27 29
M  V30 29 1 29 30
M  V30 30 2 30 31
M  V30 31 1 31 32
M  V30 32 1 29 33
M  V30 33 2 33 34
M  V30 34 1 34 35
M  V30 35 2 35 36
M  V30 36 1 36 37
M  V30 37 1 36 38
M  V30 38 1 8 3
M  V30 39 1 14 9
M  V30 40 1 23 17
M  V30 41 1 31 25
M  V30 42 1 38 33
M  V30 43 1 1 39
M  V30 44 1 1 40
M  V30 45 1 1 41
M  V30 46 1 2 42
M  V30 47 1 2 43
M  V30 48 1 3 44 CFG=1
M  V30 49 1 4 45
M  V30 50 1 4 46
M  V30 51 1 6 47
M  V30 52 1 6 48
M  V30 53 1 7 49
M  V30 54 1 7 50
M  V30 55 1 9 51
M  V30 56 1 10 52
M  V30 57 1 10 53
M  V30 58 1 11 54
M  V30 59 1 11 55
M  V30 60 1 13 56
M  V30 61 1 13 57
M  V30 62 1 14 58
M  V30 63 1 14 59
M  V30 64 1 18 60
M  V30 65 1 19 61
M  V30 66 1 24 62
M  V30 67 1 24 63
M  V30 68 1 28 64
M  V30 69 1 28 65
M  V30 70 1 37 66
M  V30 71 1 37 67
M  V30 72 1 37 68
M  V30 END BOND
M  V30 END CTAB
M  END
