
     RDKit          3D

  0  0  0  0  0  0  0  0  0  0999 V3000
M  V30 BEGIN CTAB
M  V30 COUNTS 20 20 0 0 0
M  V30 BEGIN ATOM
M  V30 1 N 2.93705 -0.730002 0.0433686 0
M  V30 2 C 1.516 -0.668287 0.0119229 0
M  V30 3 C 0.731562 -1.80121 -0.0476066 0
M  V30 4 C -0.641153 -1.71729 -0.0771247 0
M  V30 5 C -1.3131 -0.497906 -0.0490073 0
M  V30 6 C -0.516977 0.636556 0.0108565 0
M  V30 7 C 0.85858 0.546165 0.0402086 0
M  V30 8 O 1.59946 1.71443 0.0999827 0
M  V30 9 C -1.19712 1.96972 0.0428902 0
M  V30 10 F -2.00219 2.10241 1.15689 0
M  V30 11 F -1.91806 2.12039 -1.13794 0
M  V30 12 N -2.72603 -0.422129 -0.0797952 0
M  V30 13 H 3.42222 -1.21415 0.828903 0
M  V30 14 H 3.5222 -0.307501 -0.693109 0
M  V30 15 H 1.26756 -2.75068 -0.0692079 0
M  V30 16 H -1.23367 -2.61675 -0.123669 0
M  V30 17 H 2.60424 1.64237 0.121194 0
M  V30 18 H -0.441754 2.78032 0.0900677 0
M  V30 19 H -3.22965 -0.173963 0.780691 0
M  V30 20 H -3.23917 -0.612493 -0.949522 0
M  V30 END ATOM
M  V30 BEGIN BOND
M  V30 1 1 1 2
M  V30 2 2 2 3
M  V30 3 1 3 4
M  V30 4 2 4 5
M  V30 5 1 5 6
M  V30 6 2 6 7
M  V30 7 1 7 8
M  V30 8 1 6 9
M  V30 9 1 9 10
M  V30 10 1 9 11
M  V30 11 1 5 12
M  V30 12 1 7 2
M  V30 13 1 1 13
M  V30 14 1 1 14
M  V30 15 1 3 15
M  V30 16 1 4 16
M  V30 17 1 8 17
M  V30 18 1 9 18
M  V30 19 1 12 19
M  V30 20 1 12 20
M  V30 END BOND
M  V30 END CTAB
M  END
