
     RDKit          3D

  0  0  0  0  0  0  0  0  0  0999 V3000
M  V30 BEGIN CTAB
M  V30 COUNTS 32 33 0 0 0
M  V30 BEGIN ATOM
M  V30 1 N 1.05038 -0.624557 -2.75508 0
M  V30 2 N 0.273132 -0.418891 -1.66742 0
M  V30 3 C 0.588812 -0.0947263 -0.486301 0
M  V30 4 C 1.96822 0.127905 -0.0978165 0
M  V30 5 C 2.39713 0.0494763 1.22885 0
M  V30 6 C 3.6833 0.33995 1.64386 0
M  V30 7 C 4.60324 0.729256 0.699574 0
M  V30 8 C 4.25288 0.827707 -0.623366 0
M  V30 9 C 2.93196 0.522693 -0.994378 0
M  V30 10 C -0.560449 0.0838885 0.46815 0
M  V30 11 C -1.93334 -0.181985 0.0650127 0
M  V30 12 C -2.99935 0.520892 0.563088 0
M  V30 13 C -4.31572 0.179104 0.237514 0
M  V30 14 C -4.56959 -0.879677 -0.599519 0
M  V30 15 C -3.52485 -1.60529 -1.11761 0
M  V30 16 C -2.21955 -1.24373 -0.775086 0
M  V30 17 N -0.346992 0.631837 1.587 0
M  V30 18 N -1.18802 0.901911 2.60837 0
M  V30 19 H 0.983274 -0.0139488 -3.62303 0
M  V30 20 H 1.76374 -1.39025 -2.81732 0
M  V30 21 H 1.74111 -0.28084 2.01262 0
M  V30 22 H 3.96111 0.262659 2.68629 0
M  V30 23 H 5.61558 0.961648 0.997177 0
M  V30 24 H 4.98876 1.13476 -1.35305 0
M  V30 25 H 2.74348 0.652982 -2.0266 0
M  V30 26 H -2.90495 1.40742 1.20716 0
M  V30 27 H -5.14599 0.763554 0.656049 0
M  V30 28 H -5.59216 -1.12747 -0.839308 0
M  V30 29 H -3.70788 -2.44745 -1.78344 0
M  V30 30 H -1.46308 -1.88335 -1.1969 0
M  V30 31 H -1.88345 0.231875 3.03835 0
M  V30 32 H -1.19075 1.86266 3.05715 0
M  V30 END ATOM
M  V30 BEGIN BOND
M  V30 1 1 1 2
M  V30 2 2 2 3
M  V30 3 1 3 4
M  V30 4 2 4 5
M  V30 5 1 5 6
M  V30 6 2 6 7
M  V30 7 1 7 8
M  V30 8 2 8 9
M  V30 9 1 3 10
M  V30 10 1 10 11
M  V30 11 2 11 12
M  V30 12 1 12 13
M  V30 13 2 13 14
M  V30 14 1 14 15
M  V30 15 2 15 16
M  V30 16 2 10 17
M  V30 17 1 17 18
M  V30 18 1 9 4
M  V30 19 1 16 11
M  V30 20 1 1 19
M  V30 21 1 1 20
M  V30 22 1 5 21
M  V30 23 1 6 22
M  V30 24 1 7 23
M  V30 25 1 8 24
M  V30 26 1 9 25
M  V30 27 1 12 26
M  V30 28 1 13 27
M  V30 29 1 14 28
M  V30 30 1 15 29
M  V30 31 1 16 30
M  V30 32 1 18 31
M  V30 33 1 18 32
M  V30 END BOND
M  V30 END CTAB
M  END
