
     RDKit          3D

  0  0  0  0  0  0  0  0  0  0999 V3000
M  V30 BEGIN CTAB
M  V30 COUNTS 33 35 0 0 0
M  V30 BEGIN ATOM
M  V30 1 N -1.45461 -2.12838 0.147937 0
M  V30 2 C -1.47979 -1.04393 1.04299 0 CFG=2
M  V30 3 C -2.75514 -0.272562 0.649697 0 CFG=2
M  V30 4 O -3.79629 -1.14153 0.366434 0
M  V30 5 C -2.21217 0.391018 -0.60283 0 CFG=1
M  V30 6 C -3.1042 1.51081 -1.0737 0
M  V30 7 O -3.26548 2.48945 -0.114019 0
M  V30 8 O -0.946679 0.801577 -0.270606 0
M  V30 9 C -0.486696 0.0286289 0.773965 0 CFG=2
M  V30 10 N 0.866467 -0.435376 0.60178 0
M  V30 11 C 1.42294 -1.60892 0.874067 0
M  V30 12 N 2.72045 -1.57086 0.540318 0
M  V30 13 C 3.00463 -0.36128 0.0478236 0
M  V30 14 C 1.82514 0.35838 0.0878747 0
M  V30 15 N 1.83774 1.6453 -0.364525 0
M  V30 16 C 2.97721 2.18479 -0.834285 0
M  V30 17 N 4.12493 1.46453 -0.866278 0
M  V30 18 C 4.18637 0.199953 -0.439965 0
M  V30 19 N 5.36937 -0.581855 -0.459215 0
M  V30 20 H -1.20169 -2.06005 -0.761834 0
M  V30 21 H -1.91357 -2.92718 0.485559 0
M  V30 22 H -1.51982 -1.34507 2.10417 0
M  V30 23 H -2.96507 0.442751 1.44455 0
M  V30 24 H -3.96054 -1.73193 1.122 0
M  V30 25 H -2.20957 -0.401139 -1.38937 0
M  V30 26 H -4.09123 1.03291 -1.34034 0
M  V30 27 H -2.65739 1.91353 -2.0033 0
M  V30 28 H -3.26257 3.36991 -0.583576 0
M  V30 29 H -0.46865 0.700025 1.68025 0
M  V30 30 H 0.850455 -2.43188 1.3028 0
M  V30 31 H 2.95992 3.21928 -1.19118 0
M  V30 32 H 5.97363 -0.498066 -1.30979 0
M  V30 33 H 5.63193 -1.21283 0.33258 0
M  V30 END ATOM
M  V30 BEGIN BOND
M  V30 1 1 1 2
M  V30 2 1 2 3
M  V30 3 1 3 4
M  V30 4 1 3 5
M  V30 5 1 5 6
M  V30 6 1 6 7
M  V30 7 1 5 8
M  V30 8 1 8 9
M  V30 9 1 9 10
M  V30 10 1 10 11
M  V30 11 2 11 12
M  V30 12 1 12 13
M  V30 13 2 13 14
M  V30 14 1 14 15
M  V30 15 2 15 16
M  V30 16 1 16 17
M  V30 17 2 17 18
M  V30 18 1 18 19
M  V30 19 1 9 2
M  V30 20 1 14 10
M  V30 21 1 18 13
M  V30 22 1 1 20
M  V30 23 1 1 21
M  V30 24 1 2 22 CFG=1
M  V30 25 1 3 23 CFG=1
M  V30 26 1 4 24
M  V30 27 1 5 25 CFG=3
M  V30 28 1 6 26
M  V30 29 1 6 27
M  V30 30 1 7 28
M  V30 31 1 9 29 CFG=1
M  V30 32 1 11 30
M  V30 33 1 16 31
M  V30 34 1 19 32
M  V30 35 1 19 33
M  V30 END BOND
M  V30 END CTAB
M  END
