
     RDKit          3D

  0  0  0  0  0  0  0  0  0  0999 V3000
M  V30 BEGIN CTAB
M  V30 COUNTS 30 31 0 0 0
M  V30 BEGIN ATOM
M  V30 1 C -0.0485999 -0.0894446 -0.337941 0
M  V30 2 O -0.703977 0.751619 0.589136 0
M  V30 3 C -2.04103 0.784824 0.199963 0
M  V30 4 C -2.73893 1.99085 0.644226 0
M  V30 5 O -4.06925 2.19807 0.351932 0
M  V30 6 O -2.12735 2.85912 1.30334 0
M  V30 7 C -2.77757 -0.489594 0.56899 0
M  V30 8 N -3.91256 -0.580482 -0.352642 0
M  V30 9 C -1.85401 -1.63103 0.260462 0
M  V30 10 C -0.613026 -1.44178 -0.151951 0
M  V30 11 N 1.38324 -0.0384464 -0.18859 0
M  V30 12 C 2.12449 -0.18606 -1.30597 0
M  V30 13 C 3.51514 -0.143162 -1.20647 0
M  V30 14 C 4.13708 0.0463673 0.00750186 0
M  V30 15 N 5.55766 0.079469 0.0355013 0
M  V30 16 N 3.36356 0.188701 1.09314 0
M  V30 17 C 2.00722 0.143468 0.972808 0
M  V30 18 O 1.30091 0.281886 2.02215 0
M  V30 19 H -0.333372 0.302383 -1.3382 0
M  V30 20 H -2.03145 0.808417 -0.928286 0
M  V30 21 H -4.82753 2.09185 1.0105 0
M  V30 22 H -3.09958 -0.486404 1.62528 0
M  V30 23 H -4.425 -1.46328 -0.262448 0
M  V30 24 H -3.47035 -0.571114 -1.31732 0
M  V30 25 H -2.20349 -2.64985 0.375402 0
M  V30 26 H -0.00421412 -2.31212 -0.35547 0
M  V30 27 H 1.67662 -0.338158 -2.28735 0
M  V30 28 H 4.09923 -0.26236 -2.10688 0
M  V30 29 H 6.03874 -0.816644 0.269715 0
M  V30 30 H 6.07741 0.972902 -0.172539 0
M  V30 END ATOM
M  V30 BEGIN BOND
M  V30 1 1 1 2
M  V30 2 1 2 3
M  V30 3 1 3 4
M  V30 4 1 4 5
M  V30 5 2 4 6
M  V30 6 1 3 7
M  V30 7 1 7 8
M  V30 8 1 7 9
M  V30 9 2 9 10
M  V30 10 1 1 11
M  V30 11 1 11 12
M  V30 12 2 12 13
M  V30 13 1 13 14
M  V30 14 1 14 15
M  V30 15 2 14 16
M  V30 16 1 16 17
M  V30 17 2 17 18
M  V30 18 1 10 1
M  V30 19 1 17 11
M  V30 20 1 1 19
M  V30 21 1 3 20
M  V30 22 1 5 21
M  V30 23 1 7 22
M  V30 24 1 8 23
M  V30 25 1 8 24
M  V30 26 1 9 25
M  V30 27 1 10 26
M  V30 28 1 12 27
M  V30 29 1 13 28
M  V30 30 1 15 29
M  V30 31 1 15 30
M  V30 END BOND
M  V30 END CTAB
M  END
