
     RDKit          3D

  0  0  0  0  0  0  0  0  0  0999 V3000
M  V30 BEGIN CTAB
M  V30 COUNTS 29 31 0 0 0
M  V30 BEGIN ATOM
M  V30 1 C -4.47376 -1.00251 -0.451089 0
M  V30 2 C -3.09176 -0.431479 -0.311562 0
M  V30 3 C -1.96503 -1.22589 -0.335458 0
M  V30 4 C -0.717001 -0.652212 -0.203117 0
M  V30 5 N 0.392212 -1.40821 -0.223806 0
M  V30 6 C 1.63495 -0.924471 -0.101597 0
M  V30 7 C 2.76202 -1.71887 -0.12548 0
M  V30 8 C 4.04457 -1.19601 0.0032352 0
M  V30 9 C 4.17926 0.163556 0.159288 0
M  V30 10 N 5.50295 0.681416 0.289784 0
M  V30 11 C 3.06066 0.945519 0.182279 0
M  V30 12 C 1.76833 0.440111 0.0549323 0
M  V30 13 N 0.693324 1.25748 0.0842354 0
M  V30 14 C -0.542435 0.708661 -0.0446958 0
M  V30 15 C -1.66593 1.50708 -0.0201845 0
M  V30 16 C -2.92882 0.938258 -0.152823 0
M  V30 17 N -4.10555 1.72823 -0.132189 0
M  V30 18 H -4.42806 -2.08964 -0.444389 0
M  V30 19 H -4.89924 -0.707201 -1.45256 0
M  V30 20 H -5.1575 -0.560676 0.300236 0
M  V30 21 H -2.10041 -2.29239 -0.459572 0
M  V30 22 H 2.62322 -2.79712 -0.251024 0
M  V30 23 H 4.8813 -1.8654 -0.0232001 0
M  V30 24 H 6.18948 0.320066 0.989693 0
M  V30 25 H 5.84741 1.46722 -0.329671 0
M  V30 26 H 3.19208 2.02243 0.307255 0
M  V30 27 H -1.6105 2.59086 0.101304 0
M  V30 28 H -4.95836 1.51252 0.427669 0
M  V30 29 H -4.12741 2.58866 -0.71647 0
M  V30 END ATOM
M  V30 BEGIN BOND
M  V30 1 1 1 2
M  V30 2 2 2 3
M  V30 3 1 3 4
M  V30 4 2 4 5
M  V30 5 1 5 6
M  V30 6 2 6 7
M  V30 7 1 7 8
M  V30 8 2 8 9
M  V30 9 1 9 10
M  V30 10 1 9 11
M  V30 11 2 11 12
M  V30 12 1 12 13
M  V30 13 2 13 14
M  V30 14 1 14 15
M  V30 15 2 15 16
M  V30 16 1 16 17
M  V30 17 1 16 2
M  V30 18 1 14 4
M  V30 19 1 12 6
M  V30 20 1 1 18
M  V30 21 1 1 19
M  V30 22 1 1 20
M  V30 23 1 3 21
M  V30 24 1 7 22
M  V30 25 1 8 23
M  V30 26 1 10 24
M  V30 27 1 10 25
M  V30 28 1 11 26
M  V30 29 1 15 27
M  V30 30 1 17 28
M  V30 31 1 17 29
M  V30 END BOND
M  V30 END CTAB
M  END
