
     RDKit          3D

  0  0  0  0  0  0  0  0  0  0999 V3000
M  V30 BEGIN CTAB
M  V30 COUNTS 23 24 0 0 0
M  V30 BEGIN ATOM
M  V30 1 N 3.5862 0.122137 -0.190239 0
M  V30 2 N 2.27501 0.502465 0.0927575 0
M  V30 3 C 1.81474 1.64965 0.63509 0
M  V30 4 N 0.46769 1.61085 0.738112 0
M  V30 5 C 0.0384567 0.416653 0.254455 0
M  V30 6 C 1.17343 -0.244569 -0.135598 0
M  V30 7 N 1.17208 -1.5422 -0.702572 0
M  V30 8 C -1.37972 0.01281 0.204284 0
M  V30 9 C -1.83285 -1.21158 0.944951 0
M  V30 10 C -2.10209 0.280739 -1.1365 0
M  V30 11 C -2.37623 1.11121 0.099335 0
M  V30 12 H 4.15168 0.513057 -0.972554 0
M  V30 13 H 4.0395 -0.597039 0.411137 0
M  V30 14 H 2.44386 2.46279 0.934398 0
M  V30 15 H 1.34913 -1.67845 -1.71255 0
M  V30 16 H 0.993643 -2.3693 -0.111385 0
M  V30 17 H -1.84876 -0.975495 2.04078 0
M  V30 18 H -1.26645 -2.1149 0.711192 0
M  V30 19 H -2.89159 -1.4097 0.675688 0
M  V30 20 H -1.48416 0.732878 -1.95136 0
M  V30 21 H -2.91342 -0.432646 -1.41452 0
M  V30 22 H -2.0231 2.15957 0.0211705 0
M  V30 23 H -3.38705 1.00107 0.56392 0
M  V30 END ATOM
M  V30 BEGIN BOND
M  V30 1 1 1 2
M  V30 2 1 2 3
M  V30 3 2 3 4
M  V30 4 1 4 5
M  V30 5 2 5 6
M  V30 6 1 6 7
M  V30 7 1 5 8
M  V30 8 1 8 9
M  V30 9 1 8 10
M  V30 10 1 10 11
M  V30 11 1 6 2
M  V30 12 1 11 8
M  V30 13 1 1 12
M  V30 14 1 1 13
M  V30 15 1 3 14
M  V30 16 1 7 15
M  V30 17 1 7 16
M  V30 18 1 9 17
M  V30 19 1 9 18
M  V30 20 1 9 19
M  V30 21 1 10 20
M  V30 22 1 10 21
M  V30 23 1 11 22
M  V30 24 1 11 23
M  V30 END BOND
M  V30 END CTAB
M  END
