
     RDKit          3D

  0  0  0  0  0  0  0  0  0  0999 V3000
M  V30 BEGIN CTAB
M  V30 COUNTS 43 45 0 0 0
M  V30 BEGIN ATOM
M  V30 1 C -6.974 1.07843 0.0288734 0
M  V30 2 O -6.21602 -0.081504 0.292827 0
M  V30 3 C -4.83311 -0.0361337 0.249072 0
M  V30 4 C -4.1898 1.13203 -0.0500385 0
M  V30 5 C -2.78377 1.17577 -0.0939475 0
M  V30 6 C -2.07183 0.0509831 0.162546 0
M  V30 7 C -0.6184 -0.0197457 0.145364 0
M  V30 8 N 0.0270618 1.20662 -0.167962 0
M  V30 9 C 1.44601 1.2814 -0.219579 0
M  V30 10 C 2.20031 0.161309 0.0349381 0
M  V30 11 C 3.60095 0.219552 -0.0122002 0
M  V30 12 C 4.35935 -0.902619 0.242742 0
M  V30 13 N 3.71641 -2.15202 0.561566 0
M  V30 14 N 5.68758 -0.798184 0.186093 0
M  V30 15 C 6.33681 0.339196 -0.105674 0
M  V30 16 N 7.75191 0.421007 -0.158876 0
M  V30 17 N 5.5645 1.42384 -0.351164 0
M  V30 18 C 4.22433 1.40312 -0.314586 0
M  V30 19 C 3.47209 2.54932 -0.575499 0
M  V30 20 C 2.09229 2.45233 -0.519434 0
M  V30 21 C -2.77281 -1.13755 0.467972 0
M  V30 22 O -2.00037 -2.25177 0.720466 0
M  V30 23 C -2.49737 -3.51397 1.03897 0
M  V30 24 C -4.13511 -1.20348 0.516238 0
M  V30 25 H -6.8966 1.8421 0.828 0
M  V30 26 H -8.03738 0.747117 -0.061744 0
M  V30 27 H -6.68298 1.54555 -0.928806 0
M  V30 28 H -4.70314 2.05374 -0.261872 0
M  V30 29 H -2.3376 2.12586 -0.335401 0
M  V30 30 H -0.299803 -0.76129 -0.636833 0
M  V30 31 H -0.244131 -0.351056 1.15188 0
M  V30 32 H -0.492463 2.06814 -0.365152 0
M  V30 33 H 1.76911 -0.798554 0.278414 0
M  V30 34 H 2.905 -2.22324 1.19825 0
M  V30 35 H 4.09264 -3.01254 0.127283 0
M  V30 36 H 8.25548 -0.04028 -0.928614 0
M  V30 37 H 8.26226 0.937374 0.56731 0
M  V30 38 H 3.99991 3.45249 -0.807471 0
M  V30 39 H 1.50967 3.35819 -0.725914 0
M  V30 40 H -3.16633 -3.84619 0.207904 0
M  V30 41 H -1.64377 -4.22772 1.04895 0
M  V30 42 H -3.01029 -3.55407 2.02151 0
M  V30 43 H -4.66659 -2.11355 0.749987 0
M  V30 END ATOM
M  V30 BEGIN BOND
M  V30 1 1 1 2
M  V30 2 1 2 3
M  V30 3 2 3 4
M  V30 4 1 4 5
M  V30 5 2 5 6
M  V30 6 1 6 7
M  V30 7 1 7 8
M  V30 8 1 8 9
M  V30 9 2 9 10
M  V30 10 1 10 11
M  V30 11 2 11 12
M  V30 12 1 12 13
M  V30 13 1 12 14
M  V30 14 2 14 15
M  V30 15 1 15 16
M  V30 16 1 15 17
M  V30 17 2 17 18
M  V30 18 1 18 19
M  V30 19 2 19 20
M  V30 20 1 6 21
M  V30 21 1 21 22
M  V30 22 1 22 23
M  V30 23 2 21 24
M  V30 24 1 24 3
M  V30 25 1 20 9
M  V30 26 1 18 11
M  V30 27 1 1 25
M  V30 28 1 1 26
M  V30 29 1 1 27
M  V30 30 1 4 28
M  V30 31 1 5 29
M  V30 32 1 7 30
M  V30 33 1 7 31
M  V30 34 1 8 32
M  V30 35 1 10 33
M  V30 36 1 13 34
M  V30 37 1 13 35
M  V30 38 1 16 36
M  V30 39 1 16 37
M  V30 40 1 19 38
M  V30 41 1 20 39
M  V30 42 1 23 40
M  V30 43 1 23 41
M  V30 44 1 23 42
M  V30 45 1 24 43
M  V30 END BOND
M  V30 END CTAB
M  END
