
     RDKit          3D

  0  0  0  0  0  0  0  0  0  0999 V3000
M  V30 BEGIN CTAB
M  V30 COUNTS 33 33 0 0 0
M  V30 BEGIN ATOM
M  V30 1 C -5.65565 0.543706 -0.39172 0
M  V30 2 C -4.30499 0.0393081 -0.848659 0
M  V30 3 C -3.21104 0.43622 0.125167 0
M  V30 4 C -1.86143 -0.0692885 -0.333963 0
M  V30 5 N -0.81115 0.306132 0.591893 0
M  V30 6 C 0.548365 -0.0525171 0.380745 0
M  V30 7 C 0.980104 -0.773007 -0.698968 0
M  V30 8 C 2.31131 -1.11363 -0.888281 0
M  V30 9 C 3.25449 -0.718884 0.0394016 0
M  V30 10 C 2.83333 0.00689741 1.13096 0
M  V30 11 C 1.48947 0.341648 1.30687 0
M  V30 12 N 1.16191 1.09472 2.47069 0
M  V30 13 S 4.92721 -1.16305 -0.225582 0
M  V30 14 N 5.65549 0.107654 -1.14188 0
M  V30 15 O 5.65678 -1.23283 1.10271 0
M  V30 16 O 4.99281 -2.4776 -0.925977 0
M  V30 17 H -5.83928 1.57061 -0.791596 0
M  V30 18 H -5.72302 0.552736 0.733376 0
M  V30 19 H -6.46498 -0.0961337 -0.805101 0
M  V30 20 H -4.02445 0.433921 -1.82748 0
M  V30 21 H -4.39139 -1.08621 -0.85993 0
M  V30 22 H -3.25253 1.51495 0.239904 0
M  V30 23 H -3.39966 -0.0256477 1.11794 0
M  V30 24 H -1.86282 -1.16814 -0.482698 0
M  V30 25 H -1.64591 0.37147 -1.32968 0
M  V30 26 H -1.08889 0.856824 1.4318 0
M  V30 27 H 0.254713 -1.08791 -1.43132 0
M  V30 28 H 2.58867 -1.68845 -1.76884 0
M  V30 29 H 3.57668 0.308015 1.84543 0
M  V30 30 H 0.631689 0.706988 3.28139 0
M  V30 31 H 1.48027 2.08875 2.49241 0
M  V30 32 H 6.26984 0.717245 -0.555771 0
M  V30 33 H 4.92405 0.755496 -1.55914 0
M  V30 END ATOM
M  V30 BEGIN BOND
M  V30 1 1 1 2
M  V30 2 1 2 3
M  V30 3 1 3 4
M  V30 4 1 4 5
M  V30 5 1 5 6
M  V30 6 2 6 7
M  V30 7 1 7 8
M  V30 8 2 8 9
M  V30 9 1 9 10
M  V30 10 2 10 11
M  V30 11 1 11 12
M  V30 12 1 9 13
M  V30 13 1 13 14
M  V30 14 2 13 15
M  V30 15 2 13 16
M  V30 16 1 11 6
M  V30 17 1 1 17
M  V30 18 1 1 18
M  V30 19 1 1 19
M  V30 20 1 2 20
M  V30 21 1 2 21
M  V30 22 1 3 22
M  V30 23 1 3 23
M  V30 24 1 4 24
M  V30 25 1 4 25
M  V30 26 1 5 26
M  V30 27 1 7 27
M  V30 28 1 8 28
M  V30 29 1 10 29
M  V30 30 1 12 30
M  V30 31 1 12 31
M  V30 32 1 14 32
M  V30 33 1 14 33
M  V30 END BOND
M  V30 END CTAB
M  END
