
     RDKit          3D

  0  0  0  0  0  0  0  0  0  0999 V3000
M  V30 BEGIN CTAB
M  V30 COUNTS 45 46 0 0 0
M  V30 BEGIN ATOM
M  V30 1 N -4.09668 2.21671 0.355633 0
M  V30 2 C -2.86047 1.56131 0.817282 0
M  V30 3 C -2.52097 0.551721 -0.253921 0
M  V30 4 C -3.65654 -0.408698 -0.363516 0
M  V30 5 C -3.81039 -0.846529 -1.80624 0
M  V30 6 C -3.56118 -1.62228 0.480122 0
M  V30 7 C -2.28071 -1.73366 1.27045 0
M  V30 8 C -1.15063 -1.46063 0.306965 0
M  V30 9 N -1.24851 -0.0318797 -0.0254348 0
M  V30 10 C -0.0742762 0.743808 -0.124588 0
M  V30 11 O -0.151148 1.95512 -0.423256 0
M  V30 12 C 1.23303 0.139067 0.119995 0
M  V30 13 C 2.37867 1.10762 -0.0371291 0
M  V30 14 C 3.62775 0.385232 0.232393 0
M  V30 15 C 4.27706 0.54846 1.42653 0
M  V30 16 C 5.47228 -0.132556 1.70442 0
M  V30 17 C 5.98676 -0.978454 0.742562 0
M  V30 18 C 5.35011 -1.15543 -0.461431 0
M  V30 19 C 4.15608 -0.459059 -0.707658 0
M  V30 20 N 2.44304 1.65371 -1.3648 0
M  V30 21 H -4.01984 2.31936 -0.676327 0
M  V30 22 H -4.15497 3.17934 0.751775 0
M  V30 23 H -3.15158 1.07949 1.77251 0
M  V30 24 H -2.11371 2.33395 0.978315 0
M  V30 25 H -2.44836 1.14442 -1.21362 0
M  V30 26 H -4.61932 0.113205 -0.104507 0
M  V30 27 H -4.38467 -0.102328 -2.39418 0
M  V30 28 H -4.39514 -1.80778 -1.78348 0
M  V30 29 H -2.84893 -1.08193 -2.29073 0
M  V30 30 H -4.39206 -1.67626 1.24461 0
M  V30 31 H -3.67015 -2.55487 -0.110719 0
M  V30 32 H -2.20219 -2.80078 1.57626 0
M  V30 33 H -2.26928 -1.09895 2.15651 0
M  V30 34 H -0.165402 -1.65913 0.720276 0
M  V30 35 H -1.35918 -1.99141 -0.643896 0
M  V30 36 H 1.25229 -0.266595 1.15212 0
M  V30 37 H 1.38023 -0.68896 -0.603278 0
M  V30 38 H 2.28699 1.95517 0.671663 0
M  V30 39 H 3.92339 1.19614 2.21723 0
M  V30 40 H 5.99408 -0.0171419 2.63322 0
M  V30 41 H 6.90932 -1.52526 0.915669 0
M  V30 42 H 5.77206 -1.82126 -1.19564 0
M  V30 43 H 3.70223 -0.643384 -1.67973 0
M  V30 44 H 2.0086 2.60142 -1.42168 0
M  V30 45 H 3.4523 1.77996 -1.63469 0
M  V30 END ATOM
M  V30 BEGIN BOND
M  V30 1 1 1 2
M  V30 2 1 2 3
M  V30 3 1 3 4
M  V30 4 1 4 5
M  V30 5 1 4 6
M  V30 6 1 6 7
M  V30 7 1 7 8
M  V30 8 1 8 9
M  V30 9 1 9 10
M  V30 10 2 10 11
M  V30 11 1 10 12
M  V30 12 1 12 13
M  V30 13 1 13 14
M  V30 14 2 14 15
M  V30 15 1 15 16
M  V30 16 2 16 17
M  V30 17 1 17 18
M  V30 18 2 18 19
M  V30 19 1 13 20
M  V30 20 1 9 3
M  V30 21 1 19 14
M  V30 22 1 1 21
M  V30 23 1 1 22
M  V30 24 1 2 23
M  V30 25 1 2 24
M  V30 26 1 3 25
M  V30 27 1 4 26
M  V30 28 1 5 27
M  V30 29 1 5 28
M  V30 30 1 5 29
M  V30 31 1 6 30
M  V30 32 1 6 31
M  V30 33 1 7 32
M  V30 34 1 7 33
M  V30 35 1 8 34
M  V30 36 1 8 35
M  V30 37 1 12 36
M  V30 38 1 12 37
M  V30 39 1 13 38
M  V30 40 1 15 39
M  V30 41 1 16 40
M  V30 42 1 17 41
M  V30 43 1 18 42
M  V30 44 1 19 43
M  V30 45 1 20 44
M  V30 46 1 20 45
M  V30 END BOND
M  V30 END CTAB
M  END
