
     RDKit          3D

  0  0  0  0  0  0  0  0  0  0999 V3000
M  V30 BEGIN CTAB
M  V30 COUNTS 51 53 0 0 0
M  V30 BEGIN ATOM
M  V30 1 N -6.95632 1.93359 -0.00579918 0
M  V30 2 C -6.67822 0.579468 -0.441739 0
M  V30 3 C -5.82943 -0.0950995 0.612028 0
M  V30 4 C -4.63197 0.569378 -0.112546 0
M  V30 5 C -5.44399 0.475224 -1.36575 0
M  V30 6 C -3.40311 -0.21097 0.0333769 0
M  V30 7 C -2.33037 0.389515 0.653216 0
M  V30 8 C -1.10847 -0.242083 0.902668 0
M  V30 9 N -0.0802198 0.4472 1.55297 0
M  V30 10 C 1.24688 0.126588 1.90033 0
M  V30 11 C 2.27883 0.298269 0.873041 0
M  V30 12 C 2.58962 1.51597 0.252672 0
M  V30 13 C 1.74943 2.74205 0.292677 0
M  V30 14 N 3.72975 1.33112 -0.424416 0
M  V30 15 N 4.15833 0.0965121 -0.280353 0
M  V30 16 C 3.27496 -0.564474 0.51089 0
M  V30 17 C 3.41395 -1.99575 0.922576 0
M  V30 18 C 5.40826 -0.4519 -0.797131 0
M  V30 19 C 5.86449 0.225693 -2.05844 0
M  V30 20 C 6.42348 -0.212636 0.326003 0
M  V30 21 N -1.04883 -1.52393 0.478365 0
M  V30 22 C -2.09232 -2.13468 -0.133273 0
M  V30 23 N -3.26448 -1.47022 -0.35245 0
M  V30 24 N -1.99187 -3.51393 -0.511016 0
M  V30 25 H -6.81636 2.0252 1.05081 0
M  V30 26 H -7.94866 2.23222 -0.181182 0
M  V30 27 H -7.53279 0.00191175 -0.813824 0
M  V30 28 H -5.86707 -1.18272 0.46844 0
M  V30 29 H -5.91537 0.262712 1.63527 0
M  V30 30 H -4.54382 1.61764 0.232021 0
M  V30 31 H -5.42203 1.4008 -1.98722 0
M  V30 32 H -5.48546 -0.470483 -1.90068 0
M  V30 33 H -2.45969 1.42838 0.991181 0
M  V30 34 H -0.399686 1.4733 1.85228 0
M  V30 35 H 1.26831 -1.00791 2.16914 0
M  V30 36 H 1.60028 0.619219 2.8146 0
M  V30 37 H 2.0605 3.41253 -0.55607 0
M  V30 38 H 1.73811 3.29763 1.22737 0
M  V30 39 H 0.683413 2.47584 -0.000744086 0
M  V30 40 H 2.99848 -2.13214 1.95364 0
M  V30 41 H 2.91023 -2.59861 0.169511 0
M  V30 42 H 4.50311 -2.2328 1.04473 0
M  V30 43 H 5.28638 -1.52989 -0.928118 0
M  V30 44 H 6.97066 0.100618 -2.15459 0
M  V30 45 H 5.56821 1.29419 -1.98411 0
M  V30 46 H 5.41253 -0.286016 -2.92329 0
M  V30 47 H 5.9912 0.466971 1.09922 0
M  V30 48 H 6.69892 -1.13941 0.835419 0
M  V30 49 H 7.30336 0.278772 -0.0966371 0
M  V30 50 H -1.68168 -4.2164 0.23773 0
M  V30 51 H -2.19945 -3.90647 -1.44874 0
M  V30 END ATOM
M  V30 BEGIN BOND
M  V30 1 1 1 2
M  V30 2 1 2 3
M  V30 3 1 3 4
M  V30 4 1 4 5
M  V30 5 1 4 6
M  V30 6 2 6 7
M  V30 7 1 7 8
M  V30 8 1 8 9
M  V30 9 1 9 10
M  V30 10 1 10 11
M  V30 11 1 11 12
M  V30 12 1 12 13
M  V30 13 2 12 14
M  V30 14 1 14 15
M  V30 15 1 15 16
M  V30 16 1 16 17
M  V30 17 1 15 18
M  V30 18 1 18 19
M  V30 19 1 18 20
M  V30 20 2 8 21
M  V30 21 1 21 22
M  V30 22 2 22 23
M  V30 23 1 22 24
M  V30 24 1 5 2
M  V30 25 1 23 6
M  V30 26 2 16 11
M  V30 27 1 1 25
M  V30 28 1 1 26
M  V30 29 1 2 27
M  V30 30 1 3 28
M  V30 31 1 3 29
M  V30 32 1 4 30
M  V30 33 1 5 31
M  V30 34 1 5 32
M  V30 35 1 7 33
M  V30 36 1 9 34
M  V30 37 1 10 35
M  V30 38 1 10 36
M  V30 39 1 13 37
M  V30 40 1 13 38
M  V30 41 1 13 39
M  V30 42 1 17 40
M  V30 43 1 17 41
M  V30 44 1 17 42
M  V30 45 1 18 43
M  V30 46 1 19 44
M  V30 47 1 19 45
M  V30 48 1 19 46
M  V30 49 1 20 47
M  V30 50 1 20 48
M  V30 51 1 20 49
M  V30 52 1 24 50
M  V30 53 1 24 51
M  V30 END BOND
M  V30 END CTAB
M  END
