
     RDKit          3D

  0  0  0  0  0  0  0  0  0  0999 V3000
M  V30 BEGIN CTAB
M  V30 COUNTS 34 36 0 0 0
M  V30 BEGIN ATOM
M  V30 1 C 5.53702 -0.114756 0.294411 0
M  V30 2 C 5.03124 -0.496944 -1.07959 0
M  V30 3 O 3.71362 -0.944978 -1.09677 0
M  V30 4 C 2.58718 -0.271107 -0.715056 0
M  V30 5 C 1.37347 -0.938468 -0.823718 0
M  V30 6 C 0.174876 -0.341762 -0.46267 0
M  V30 7 C -1.02964 -0.998665 -0.568459 0
M  V30 8 N -1.08749 -2.32536 -1.05661 0
M  V30 9 C -2.22393 -0.394649 -0.205146 0
M  V30 10 C -2.18979 0.905215 0.275718 0
M  V30 11 C -3.3849 1.51732 0.642164 0
M  V30 12 C -4.57064 0.830352 0.523006 0
M  V30 13 N -5.78657 1.48855 0.909078 0
M  V30 14 C -4.61057 -0.462179 0.0455451 0
M  V30 15 C -3.42944 -1.05978 -0.313874 0
M  V30 16 N -1.00966 1.52997 0.372335 0
M  V30 17 C 0.165709 0.950829 0.0204831 0
M  V30 18 C 1.36885 1.59534 0.121806 0
M  V30 19 C 2.58084 1.03142 -0.228602 0
M  V30 20 H 6.387 -0.748385 0.617476 0
M  V30 21 H 4.71009 -0.301104 1.03217 0
M  V30 22 H 5.79019 0.969914 0.366257 0
M  V30 23 H 5.66069 -1.30612 -1.54305 0
M  V30 24 H 5.08419 0.39285 -1.76928 0
M  V30 25 H 1.31039 -1.95747 -1.19649 0
M  V30 26 H -0.600471 -2.55369 -1.94733 0
M  V30 27 H -1.60055 -3.07843 -0.554168 0
M  V30 28 H -3.35839 2.54369 1.0219 0
M  V30 29 H -6.70038 1.1052 0.576189 0
M  V30 30 H -5.7867 2.33159 1.5073 0
M  V30 31 H -5.56965 -1.00004 -0.0442103 0
M  V30 32 H -3.44557 -2.06864 -0.68828 0
M  V30 33 H 1.39083 2.60702 0.496587 0
M  V30 34 H 3.51814 1.56327 -0.140155 0
M  V30 END ATOM
M  V30 BEGIN BOND
M  V30 1 1 1 2
M  V30 2 1 2 3
M  V30 3 1 3 4
M  V30 4 2 4 5
M  V30 5 1 5 6
M  V30 6 2 6 7
M  V30 7 1 7 8
M  V30 8 1 7 9
M  V30 9 2 9 10
M  V30 10 1 10 11
M  V30 11 2 11 12
M  V30 12 1 12 13
M  V30 13 1 12 14
M  V30 14 2 14 15
M  V30 15 1 10 16
M  V30 16 2 16 17
M  V30 17 1 17 18
M  V30 18 2 18 19
M  V30 19 1 19 4
M  V30 20 1 17 6
M  V30 21 1 15 9
M  V30 22 1 1 20
M  V30 23 1 1 21
M  V30 24 1 1 22
M  V30 25 1 2 23
M  V30 26 1 2 24
M  V30 27 1 5 25
M  V30 28 1 8 26
M  V30 29 1 8 27
M  V30 30 1 11 28
M  V30 31 1 13 29
M  V30 32 1 13 30
M  V30 33 1 14 31
M  V30 34 1 15 32
M  V30 35 1 18 33
M  V30 36 1 19 34
M  V30 END BOND
M  V30 END CTAB
M  END
