
     RDKit          3D

  0  0  0  0  0  0  0  0  0  0999 V3000
M  V30 BEGIN CTAB
M  V30 COUNTS 69 72 0 0 0
M  V30 BEGIN ATOM
M  V30 1 C -1.27717 -0.868507 1.44779 0
M  V30 2 C -1.44674 -1.75214 0.235745 0
M  V30 3 N -0.271531 -1.96997 -0.539639 0
M  V30 4 C 0.5184 -3.16919 -0.136315 0
M  V30 5 C -0.249966 -4.44112 -0.463973 0
M  V30 6 C -0.032287 -5.38194 0.705096 0
M  V30 7 C 1.13597 -4.74077 1.47791 0
M  V30 8 C 0.732957 -3.25872 1.33236 0
M  V30 9 C 0.266569 -1.20868 -1.57794 0
M  V30 10 O 1.3473 -1.89684 -2.07918 0
M  V30 11 C 0.0613461 0.0219884 -2.26257 0 CFG=2
M  V30 12 C -1.14162 0.727586 -2.66156 0
M  V30 13 C -2.12882 1.23945 -1.73101 0
M  V30 14 C -1.80145 2.33974 -0.888302 0
M  V30 15 C -2.70302 2.90534 -0.0685836 0
M  V30 16 C -4.00272 2.46721 0.0167267 0
M  V30 17 C -4.36943 1.41163 -0.774437 0
M  V30 18 C -3.45167 0.832915 -1.61048 0
M  V30 19 C -4.93093 3.10586 0.926777 0
M  V30 20 N -4.49715 4.18329 1.72636 0
M  V30 21 N -6.14228 2.68615 1.004 0
M  V30 22 N -7.0108 3.33307 1.90091 0
M  V30 23 N 1.06036 0.112353 -3.40094 0
M  V30 24 S 2.26334 1.26126 -3.13049 0
M  V30 25 O 3.25447 1.28673 -4.31356 0
M  V30 26 O 1.63928 2.62985 -2.99124 0
M  V30 27 C 3.26573 0.987497 -1.73779 0
M  V30 28 C 2.93671 1.58581 -0.537407 0
M  V30 29 C 3.71433 1.41473 0.616007 0
M  V30 30 C 4.84482 0.62664 0.561258 0
M  V30 31 C 5.59154 0.476335 1.7175 0
M  V30 32 C 5.20924 1.10306 2.91131 0
M  V30 33 C 4.0774 1.88812 2.96048 0
M  V30 34 C 3.34657 2.02652 1.78897 0
M  V30 35 C 5.17237 0.0300377 -0.628908 0
M  V30 36 C 4.39142 0.212096 -1.7564 0
M  V30 37 H -1.70314 0.135595 1.34738 0
M  V30 38 H -1.84731 -1.34703 2.3065 0
M  V30 39 H -0.215845 -0.756726 1.76406 0
M  V30 40 H -2.36975 -1.48515 -0.283533 0
M  V30 41 H -1.74202 -2.81373 0.633483 0
M  V30 42 H 1.4624 -3.25002 -0.676566 0
M  V30 43 H 0.246694 -4.959 -1.34333 0
M  V30 44 H -1.29076 -4.25538 -0.714488 0
M  V30 45 H -0.90769 -5.32779 1.37902 0
M  V30 46 H 0.215774 -6.41066 0.383183 0
M  V30 47 H 2.09103 -4.88119 0.931493 0
M  V30 48 H 1.15759 -5.03276 2.52714 0
M  V30 49 H -0.224614 -3.21439 1.9313 0
M  V30 50 H 1.51793 -2.60644 1.72909 0
M  V30 51 H 0.589636 0.816357 -1.54387 0
M  V30 52 H -0.775244 1.66323 -3.24092 0
M  V30 53 H -1.67666 0.192673 -3.54165 0
M  V30 54 H -0.785707 2.69001 -0.945705 0
M  V30 55 H -2.40496 3.74419 0.554837 0
M  V30 56 H -5.37374 1.01635 -0.756603 0
M  V30 57 H -3.77803 -0.00349375 -2.22157 0
M  V30 58 H -4.78388 4.24439 2.71369 0
M  V30 59 H -3.88209 4.90919 1.30535 0
M  V30 60 H -7.66511 4.06231 1.57917 0
M  V30 61 H -6.96431 3.05222 2.89022 0
M  V30 62 H 0.495626 0.355485 -4.22416 0
M  V30 63 H 2.06868 2.22378 -0.406898 0
M  V30 64 H 6.46864 -0.12638 1.70219 0
M  V30 65 H 5.80871 0.968276 3.79168 0
M  V30 66 H 3.7481 2.3917 3.85191 0
M  V30 67 H 2.44217 2.64453 1.82471 0
M  V30 68 H 6.07604 -0.590531 -0.670214 0
M  V30 69 H 4.62932 -0.256981 -2.72118 0
M  V30 END ATOM
M  V30 BEGIN BOND
M  V30 1 1 1 2
M  V30 2 1 2 3
M  V30 3 1 3 4
M  V30 4 1 4 5
M  V30 5 1 5 6
M  V30 6 1 6 7
M  V30 7 1 7 8
M  V30 8 1 3 9
M  V30 9 2 9 10
M  V30 10 1 9 11
M  V30 11 1 11 12
M  V30 12 1 12 13
M  V30 13 2 13 14
M  V30 14 1 14 15
M  V30 15 2 15 16
M  V30 16 1 16 17
M  V30 17 2 17 18
M  V30 18 1 16 19
M  V30 19 1 19 20
M  V30 20 2 19 21
M  V30 21 1 21 22
M  V30 22 1 11 23
M  V30 23 1 23 24
M  V30 24 2 24 25
M  V30 25 2 24 26
M  V30 26 1 24 27
M  V30 27 2 27 28
M  V30 28 1 28 29
M  V30 29 2 29 30
M  V30 30 1 30 31
M  V30 31 2 31 32
M  V30 32 1 32 33
M  V30 33 2 33 34
M  V30 34 1 30 35
M  V30 35 2 35 36
M  V30 36 1 8 4
M  V30 37 1 18 13
M  V30 38 1 36 27
M  V30 39 1 34 29
M  V30 40 1 1 37
M  V30 41 1 1 38
M  V30 42 1 1 39
M  V30 43 1 2 40
M  V30 44 1 2 41
M  V30 45 1 4 42
M  V30 46 1 5 43
M  V30 47 1 5 44
M  V30 48 1 6 45
M  V30 49 1 6 46
M  V30 50 1 7 47
M  V30 51 1 7 48
M  V30 52 1 8 49
M  V30 53 1 8 50
M  V30 54 1 11 51 CFG=1
M  V30 55 1 12 52
M  V30 56 1 12 53
M  V30 57 1 14 54
M  V30 58 1 15 55
M  V30 59 1 17 56
M  V30 60 1 18 57
M  V30 61 1 20 58
M  V30 62 1 20 59
M  V30 63 1 22 60
M  V30 64 1 22 61
M  V30 65 1 23 62
M  V30 66 1 28 63
M  V30 67 1 31 64
M  V30 68 1 32 65
M  V30 69 1 33 66
M  V30 70 1 34 67
M  V30 71 1 35 68
M  V30 72 1 36 69
M  V30 END BOND
M  V30 END CTAB
M  END
