
     RDKit          3D

  0  0  0  0  0  0  0  0  0  0999 V3000
M  V30 BEGIN CTAB
M  V30 COUNTS 33 36 0 0 0
M  V30 BEGIN ATOM
M  V30 1 N -6.16468 2.27174 0.7042 0
M  V30 2 C -5.017 1.42853 0.836211 0
M  V30 3 S -4.41256 0.649076 2.24628 0
M  V30 4 C -3.0598 -0.133516 1.55713 0
M  V30 5 C -3.15269 0.259376 0.248738 0
M  V30 6 N -4.14523 1.0409 -0.0743909 0
M  V30 7 C -2.15969 -0.220426 -0.63559 0
M  V30 8 C -1.18244 -1.03037 -0.155749 0
M  V30 9 C -1.05163 -1.4499 1.15215 0
M  V30 10 C -2.02983 -0.973094 2.00666 0
M  V30 11 C -0.131821 -1.53349 -1.10964 0
M  V30 12 C 1.02759 -0.569817 -1.15085 0
M  V30 13 C 0.962784 0.449398 -2.09657 0
M  V30 14 C 2.04902 1.31337 -2.10084 0
M  V30 15 C 3.11241 1.13829 -1.2031 0
M  V30 16 C 3.15012 0.124192 -0.280837 0
M  V30 17 C 2.04404 -0.757173 -0.275063 0
M  V30 18 N 4.18834 0.0618551 0.499707 0
M  V30 19 C 5.15709 0.951522 0.390643 0
M  V30 20 S 4.59318 1.9438 -0.880039 0
M  V30 21 N 6.35137 0.990809 1.19047 0
M  V30 22 H -6.1667 2.99902 0.00531242 0
M  V30 23 H -6.96526 2.11213 1.33196 0
M  V30 24 H -2.15397 0.0379195 -1.68445 0
M  V30 25 H -0.266646 -2.09481 1.51484 0
M  V30 26 H -2.0447 -1.22469 3.05435 0
M  V30 27 H 0.20468 -2.53697 -0.796094 0
M  V30 28 H -0.546642 -1.65233 -2.13524 0
M  V30 29 H 0.15895 0.581578 -2.77502 0
M  V30 30 H 2.13459 2.14157 -2.77274 0
M  V30 31 H 1.9934 -1.58155 0.417861 0
M  V30 32 H 6.28399 1.42039 2.12962 0
M  V30 33 H 7.23972 0.605325 0.840073 0
M  V30 END ATOM
M  V30 BEGIN BOND
M  V30 1 1 1 2
M  V30 2 1 2 3
M  V30 3 1 3 4
M  V30 4 2 4 5
M  V30 5 1 5 6
M  V30 6 1 5 7
M  V30 7 2 7 8
M  V30 8 1 8 9
M  V30 9 2 9 10
M  V30 10 1 8 11
M  V30 11 1 11 12
M  V30 12 2 12 13
M  V30 13 1 13 14
M  V30 14 2 14 15
M  V30 15 1 15 16
M  V30 16 2 16 17
M  V30 17 1 16 18
M  V30 18 2 18 19
M  V30 19 1 19 20
M  V30 20 1 19 21
M  V30 21 2 6 2
M  V30 22 1 17 12
M  V30 23 1 10 4
M  V30 24 1 20 15
M  V30 25 1 1 22
M  V30 26 1 1 23
M  V30 27 1 7 24
M  V30 28 1 9 25
M  V30 29 1 10 26
M  V30 30 1 11 27
M  V30 31 1 11 28
M  V30 32 1 13 29
M  V30 33 1 14 30
M  V30 34 1 17 31
M  V30 35 1 21 32
M  V30 36 1 21 33
M  V30 END BOND
M  V30 END CTAB
M  END
