
     RDKit          3D

  0  0  0  0  0  0  0  0  0  0999 V3000
M  V30 BEGIN CTAB
M  V30 COUNTS 27 28 0 0 0
M  V30 BEGIN ATOM
M  V30 1 Cl 6.93008 -0.835595 0.453776 0
M  V30 2 C 5.20509 -0.600767 0.25251 0
M  V30 3 C 4.40138 -1.53207 -0.374431 0
M  V30 4 C 3.04664 -1.31797 -0.517281 0
M  V30 5 C 2.43583 -0.165202 -0.0405608 0
M  V30 6 N 3.24142 0.7262 0.566289 0
M  V30 7 C 4.56361 0.542164 0.718474 0
M  V30 8 N 1.03536 0.0346876 -0.199227 0
M  V30 9 N 0.219471 -0.394428 0.64521 0
M  V30 10 C -1.19555 -0.187353 0.476146 0
M  V30 11 C -2.09713 -1.20368 0.706259 0
M  V30 12 C -3.45952 -0.99788 0.54159 0
M  V30 13 C -3.95045 0.237424 0.140631 0
M  V30 14 C -3.04839 1.24143 -0.0858203 0
M  V30 15 C -1.69715 1.03281 0.0788258 0
M  V30 16 N -0.809525 2.11576 -0.171956 0
M  V30 17 N -5.35892 0.391996 -0.0124993 0
M  V30 18 H 4.89543 -2.42189 -0.738228 0
M  V30 19 H 2.42363 -2.067 -1.01714 0
M  V30 20 H 5.21014 1.27158 1.2127 0
M  V30 21 H -1.77109 -2.18703 1.0205 0
M  V30 22 H -4.12739 -1.8182 0.731889 0
M  V30 23 H -3.44873 2.21478 -0.402789 0
M  V30 24 H -0.5849 2.76047 0.6133 0
M  V30 25 H -0.366609 2.31322 -1.08232 0
M  V30 26 H -5.92807 0.877335 0.686487 0
M  V30 27 H -5.76467 -0.0307998 -0.897409 0
M  V30 END ATOM
M  V30 BEGIN BOND
M  V30 1 1 1 2
M  V30 2 2 2 3
M  V30 3 1 3 4
M  V30 4 2 4 5
M  V30 5 1 5 6
M  V30 6 2 6 7
M  V30 7 1 5 8
M  V30 8 2 8 9
M  V30 9 1 9 10
M  V30 10 2 10 11
M  V30 11 1 11 12
M  V30 12 2 12 13
M  V30 13 1 13 14
M  V30 14 2 14 15
M  V30 15 1 15 16
M  V30 16 1 13 17
M  V30 17 1 7 2
M  V30 18 1 15 10
M  V30 19 1 3 18
M  V30 20 1 4 19
M  V30 21 1 7 20
M  V30 22 1 11 21
M  V30 23 1 12 22
M  V30 24 1 14 23
M  V30 25 1 16 24
M  V30 26 1 16 25
M  V30 27 1 17 26
M  V30 28 1 17 27
M  V30 END BOND
M  V30 END CTAB
M  END
