
     RDKit          3D

  0  0  0  0  0  0  0  0  0  0999 V3000
M  V30 BEGIN CTAB
M  V30 COUNTS 19 19 0 0 0
M  V30 BEGIN ATOM
M  V30 1 C 2.40462 0.460327 -0.101905 0
M  V30 2 C 0.917654 0.466543 -0.0984188 0
M  V30 3 C 0.289001 -0.736845 0.143891 0
M  V30 4 C -1.09717 -0.710971 0.14369 0
M  V30 5 N -1.76265 -1.94065 0.373249 0
M  V30 6 N -1.75684 0.44091 -0.0820786 0
M  V30 7 C -1.13835 1.61111 -0.315901 0
M  V30 8 N -1.86806 2.81175 -0.552177 0
M  V30 9 N 0.208804 1.5864 -0.317628 0
M  V30 10 N 1.00368 -1.94029 0.395928 0 CHG=1
M  V30 11 O 1.07843 -2.41949 1.69995 0 CHG=-1
M  V30 12 O 1.57531 -2.6182 -0.471138 0
M  V30 13 H 2.83877 0.163148 0.865921 0
M  V30 14 H 2.70347 -0.339094 -0.832264 0
M  V30 15 H 2.83345 1.38466 -0.484837 0
M  V30 16 H -1.99559 -2.21458 1.34623 0
M  V30 17 H -2.00728 -2.55587 -0.424175 0
M  V30 18 H -2.89372 2.86297 -0.553112 0
M  V30 19 H -1.33351 3.68818 -0.735218 0
M  V30 END ATOM
M  V30 BEGIN BOND
M  V30 1 1 1 2
M  V30 2 2 2 3
M  V30 3 1 3 4
M  V30 4 1 4 5
M  V30 5 2 4 6
M  V30 6 1 6 7
M  V30 7 1 7 8
M  V30 8 2 7 9
M  V30 9 1 3 10
M  V30 10 1 10 11
M  V30 11 2 10 12
M  V30 12 1 9 2
M  V30 13 1 1 13
M  V30 14 1 1 14
M  V30 15 1 1 15
M  V30 16 1 5 16
M  V30 17 1 5 17
M  V30 18 1 8 18
M  V30 19 1 8 19
M  V30 END BOND
M  V30 END CTAB
M  END
