
     RDKit          3D

  0  0  0  0  0  0  0  0  0  0999 V3000
M  V30 BEGIN CTAB
M  V30 COUNTS 31 33 0 0 0
M  V30 BEGIN ATOM
M  V30 1 N -5.52659 1.1952 -0.774305 0
M  V30 2 C -4.4663 0.35937 -0.338243 0
M  V30 3 N -4.00763 -0.65174 -1.22515 0
M  V30 4 N -3.94039 0.518395 0.827832 0
M  V30 5 C -2.87366 -0.315709 1.27782 0
M  V30 6 O -3.15172 -1.24536 2.07547 0
M  V30 7 C -1.51111 -0.140817 0.8633 0
M  V30 8 C -0.525074 -0.977905 1.33198 0
M  V30 9 C 0.77785 -0.758157 0.893703 0
M  V30 10 C 1.12907 0.24876 0.0196348 0
M  V30 11 C 0.106079 1.06866 -0.427874 0
M  V30 12 C -1.22142 0.88925 -0.0168106 0
M  V30 13 C 2.57211 0.21717 -0.246448 0
M  V30 14 C 3.39566 0.998535 -1.03596 0
M  V30 15 Cl 2.7831 2.33802 -1.98077 0
M  V30 16 C 4.75675 0.74447 -1.10807 0
M  V30 17 C 5.29639 -0.307812 -0.377637 0
M  V30 18 C 4.47288 -1.08546 0.408908 0
M  V30 19 C 3.12006 -0.837719 0.484386 0
M  V30 20 C 2.02428 -1.46513 1.20603 0
M  V30 21 O 2.09944 -2.45743 1.98238 0
M  V30 22 H -5.71862 1.40373 -1.77763 0
M  V30 23 H -6.16552 1.63931 -0.0737803 0
M  V30 24 H -4.02271 -1.65638 -0.977999 0
M  V30 25 H -3.648 -0.340654 -2.15238 0
M  V30 26 H -0.772283 -1.77563 2.01819 0
M  V30 27 H 0.333593 1.86584 -1.10967 0
M  V30 28 H -2.00612 1.53976 -0.377316 0
M  V30 29 H 5.41518 1.35242 -1.72593 0
M  V30 30 H 6.35454 -0.466788 -0.464442 0
M  V30 31 H 4.92015 -1.89621 0.965319 0
M  V30 END ATOM
M  V30 BEGIN BOND
M  V30 1 1 1 2
M  V30 2 1 2 3
M  V30 3 2 2 4
M  V30 4 1 4 5
M  V30 5 2 5 6
M  V30 6 1 5 7
M  V30 7 2 7 8
M  V30 8 1 8 9
M  V30 9 2 9 10
M  V30 10 1 10 11
M  V30 11 2 11 12
M  V30 12 1 10 13
M  V30 13 2 13 14
M  V30 14 1 14 15
M  V30 15 1 14 16
M  V30 16 2 16 17
M  V30 17 1 17 18
M  V30 18 2 18 19
M  V30 19 1 19 20
M  V30 20 2 20 21
M  V30 21 1 12 7
M  V30 22 1 19 13
M  V30 23 1 20 9
M  V30 24 1 1 22
M  V30 25 1 1 23
M  V30 26 1 3 24
M  V30 27 1 3 25
M  V30 28 1 8 26
M  V30 29 1 11 27
M  V30 30 1 12 28
M  V30 31 1 16 29
M  V30 32 1 17 30
M  V30 33 1 18 31
M  V30 END BOND
M  V30 END CTAB
M  END
