
     RDKit          3D

  0  0  0  0  0  0  0  0  0  0999 V3000
M  V30 BEGIN CTAB
M  V30 COUNTS 17 17 0 0 0
M  V30 BEGIN ATOM
M  V30 1 O 3.1982 0.298444 -0.28401 0
M  V30 2 C 1.81692 0.341917 -0.185453 0
M  V30 3 C 1.12167 -0.849038 -0.13861 0
M  V30 4 C -0.260375 -0.87503 -0.0401509 0
M  V30 5 N -0.947157 -2.10037 0.00599776 0
M  V30 6 C -0.970922 0.318514 0.0132221 0
M  V30 7 C -0.266139 1.50034 -0.0343186 0
M  V30 8 C 1.11392 1.53323 -0.132622 0
M  V30 9 Br -1.25998 3.13133 0.04022 0
M  V30 10 N -2.39944 0.300166 0.114984 0
M  V30 11 H 3.7566 0.280881 0.563768 0
M  V30 12 H 1.677 -1.79387 -0.180371 0
M  V30 13 H -0.563205 -2.86457 0.600369 0
M  V30 14 H -1.8194 -2.27499 -0.526628 0
M  V30 15 H 1.67833 2.46785 -0.170687 0
M  V30 16 H -3.03168 0.315133 -0.708231 0
M  V30 17 H -2.84435 0.270081 1.06252 0
M  V30 END ATOM
M  V30 BEGIN BOND
M  V30 1 1 1 2
M  V30 2 2 2 3
M  V30 3 1 3 4
M  V30 4 1 4 5
M  V30 5 2 4 6
M  V30 6 1 6 7
M  V30 7 2 7 8
M  V30 8 1 7 9
M  V30 9 1 6 10
M  V30 10 1 8 2
M  V30 11 1 1 11
M  V30 12 1 3 12
M  V30 13 1 5 13
M  V30 14 1 5 14
M  V30 15 1 8 15
M  V30 16 1 10 16
M  V30 17 1 10 17
M  V30 END BOND
M  V30 END CTAB
M  END
