
     RDKit          3D

  0  0  0  0  0  0  0  0  0  0999 V3000
M  V30 BEGIN CTAB
M  V30 COUNTS 34 35 0 0 0
M  V30 BEGIN ATOM
M  V30 1 C 5.73086 0.736513 -0.527848 0
M  V30 2 O 4.45348 1.31788 -0.535528 0
M  V30 3 C 3.28686 0.667854 -0.225422 0
M  V30 4 C 3.24398 -0.664422 0.138051 0
M  V30 5 C 2.05008 -1.28913 0.443394 0
M  V30 6 C 0.834458 -0.589371 0.395106 0
M  V30 7 C 0.873103 0.725998 0.0366198 0
M  V30 8 C 2.07481 1.32553 -0.262611 0
M  V30 9 C -0.38758 -1.35532 0.717894 0
M  V30 10 C -1.64996 -0.663906 0.394709 0
M  V30 11 C -2.23472 0.290289 1.20379 0
M  V30 12 N -1.60532 0.590152 2.43377 0
M  V30 13 N -3.38195 0.887258 0.812508 0
M  V30 14 C -4.0154 0.61154 -0.341616 0
M  V30 15 N -3.43167 -0.321394 -1.11739 0
M  V30 16 C -2.29671 -0.959119 -0.803884 0
M  V30 17 N -1.70484 -1.93615 -1.65683 0
M  V30 18 C -5.28004 1.28792 -0.751582 0
M  V30 19 H 5.85221 0.186486 -1.49742 0
M  V30 20 H 5.93088 0.0875669 0.326049 0
M  V30 21 H 6.52186 1.52214 -0.54547 0
M  V30 22 H 4.20775 -1.16564 0.16107 0
M  V30 23 H 2.0883 -2.33526 0.719246 0
M  V30 24 H -0.0653322 1.28393 -0.0162326 0
M  V30 25 H 2.04062 2.37154 -0.53867 0
M  V30 26 H -0.342209 -2.31084 0.159248 0
M  V30 27 H -0.355526 -1.61564 1.8021 0
M  V30 28 H -1.21102 -0.146996 3.04248 0
M  V30 29 H -1.53269 1.57741 2.74161 0
M  V30 30 H -1.10245 -1.59564 -2.43192 0
M  V30 31 H -1.83917 -2.95632 -1.55072 0
M  V30 32 H -5.63287 0.787504 -1.67332 0
M  V30 33 H -6.05069 1.29511 0.0233765 0
M  V30 34 H -5.0691 2.35252 -1.07456 0
M  V30 END ATOM
M  V30 BEGIN BOND
M  V30 1 1 1 2
M  V30 2 1 2 3
M  V30 3 2 3 4
M  V30 4 1 4 5
M  V30 5 2 5 6
M  V30 6 1 6 7
M  V30 7 2 7 8
M  V30 8 1 6 9
M  V30 9 1 9 10
M  V30 10 2 10 11
M  V30 11 1 11 12
M  V30 12 1 11 13
M  V30 13 2 13 14
M  V30 14 1 14 15
M  V30 15 2 15 16
M  V30 16 1 16 17
M  V30 17 1 14 18
M  V30 18 1 8 3
M  V30 19 1 16 10
M  V30 20 1 1 19
M  V30 21 1 1 20
M  V30 22 1 1 21
M  V30 23 1 4 22
M  V30 24 1 5 23
M  V30 25 1 7 24
M  V30 26 1 8 25
M  V30 27 1 9 26
M  V30 28 1 9 27
M  V30 29 1 12 28
M  V30 30 1 12 29
M  V30 31 1 17 30
M  V30 32 1 17 31
M  V30 33 1 18 32
M  V30 34 1 18 33
M  V30 35 1 18 34
M  V30 END BOND
M  V30 END CTAB
M  END
