
     RDKit          3D

  0  0  0  0  0  0  0  0  0  0999 V3000
M  V30 BEGIN CTAB
M  V30 COUNTS 29 29 0 0 0
M  V30 BEGIN ATOM
M  V30 1 C 3.8123 0.365401 0.144418 0
M  V30 2 O 2.63537 -0.212392 0.61964 0
M  V30 3 C 1.80886 -0.636555 -0.393113 0
M  V30 4 C 0.441678 -0.153485 -0.193166 0
M  V30 5 N -0.709514 -0.868736 -0.253334 0
M  V30 6 C -1.71797 -0.022672 -0.0252911 0
M  V30 7 N -1.25193 1.21955 0.181758 0
M  V30 8 C 0.088509 1.14668 0.0789677 0
M  V30 9 N 0.926477 2.27624 0.240715 0
M  V30 10 N -1.97065 2.38956 0.457361 0
M  V30 11 C -3.19176 -0.297652 0.000871891 0
M  V30 12 C -3.40805 -1.74806 -0.32433 0
M  V30 13 C 1.83563 -2.18493 -0.388328 0
M  V30 14 H 4.37442 -0.388828 -0.458933 0
M  V30 15 H 3.66808 1.30233 -0.420113 0
M  V30 16 H 4.44498 0.589182 1.02344 0
M  V30 17 H 2.21506 -0.372448 -1.41363 0
M  V30 18 H 1.16297 2.62555 1.1846 0
M  V30 19 H 1.30146 2.74902 -0.594997 0
M  V30 20 H -2.96146 2.51997 0.194819 0
M  V30 21 H -1.49195 3.17272 0.951482 0
M  V30 22 H -3.72648 0.364059 -0.721559 0
M  V30 23 H -3.56153 -0.0161335 1.01473 0
M  V30 24 H -2.70943 -2.00217 -1.17613 0
M  V30 25 H -3.11129 -2.36216 0.532737 0
M  V30 26 H -4.44588 -1.95942 -0.673276 0
M  V30 27 H 1.60035 -2.45819 0.659912 0
M  V30 28 H 1.08519 -2.57448 -1.07196 0
M  V30 29 H 2.85655 -2.46196 -0.696385 0
M  V30 END ATOM
M  V30 BEGIN BOND
M  V30 1 1 1 2
M  V30 2 1 2 3
M  V30 3 1 3 4
M  V30 4 1 4 5
M  V30 5 2 5 6
M  V30 6 1 6 7
M  V30 7 1 7 8
M  V30 8 1 8 9
M  V30 9 1 7 10
M  V30 10 1 6 11
M  V30 11 1 11 12
M  V30 12 1 3 13
M  V30 13 2 8 4
M  V30 14 1 1 14
M  V30 15 1 1 15
M  V30 16 1 1 16
M  V30 17 1 3 17
M  V30 18 1 9 18
M  V30 19 1 9 19
M  V30 20 1 10 20
M  V30 21 1 10 21
M  V30 22 1 11 22
M  V30 23 1 11 23
M  V30 24 1 12 24
M  V30 25 1 12 25
M  V30 26 1 12 26
M  V30 27 1 13 27
M  V30 28 1 13 28
M  V30 29 1 13 29
M  V30 END BOND
M  V30 END CTAB
M  END
