
     RDKit          3D

  0  0  0  0  0  0  0  0  0  0999 V3000
M  V30 BEGIN CTAB
M  V30 COUNTS 41 41 0 0 0
M  V30 BEGIN ATOM
M  V30 1 C 4.67528 -0.883633 0.721423 0
M  V30 2 C 3.66802 0.0352621 0.0291644 0
M  V30 3 C 2.65698 -0.742476 -0.726302 0
M  V30 4 C 1.6374 0.139157 -1.47985 0
M  V30 5 C 0.879144 1.00319 -0.604726 0
M  V30 6 O 1.58591 1.99838 -0.117014 0
M  V30 7 N -0.446418 0.978134 -0.184385 0
M  V30 8 C -0.847001 2.06214 0.737188 0
M  V30 9 C -2.18308 2.62841 0.411045 0
M  V30 10 C -3.20269 1.51413 0.327248 0
M  V30 11 C -2.82853 0.441726 -0.614174 0
M  V30 12 C -1.38426 -0.0154285 -0.576683 0
M  V30 13 C -1.27337 -1.25686 0.320232 0
M  V30 14 N -1.53386 -0.945342 1.69391 0
M  V30 15 C -2.26843 -2.253 -0.176898 0
M  V30 16 N 0.944615 -0.74414 -2.36569 0
M  V30 17 H 5.37722 -0.212689 1.2534 0
M  V30 18 H 4.16241 -1.50496 1.47755 0
M  V30 19 H 5.24995 -1.48343 -0.00638659 0
M  V30 20 H 4.23226 0.742598 -0.574458 0
M  V30 21 H 3.14466 0.553658 0.889587 0
M  V30 22 H 2.08127 -1.44518 -0.0923203 0
M  V30 23 H 3.1992 -1.37772 -1.46471 0
M  V30 24 H 2.26497 0.802535 -2.1687 0
M  V30 25 H -0.108782 2.87643 0.620389 0
M  V30 26 H -0.772657 1.71024 1.77781 0
M  V30 27 H -2.52218 3.29793 1.22708 0
M  V30 28 H -2.17014 3.17444 -0.535066 0
M  V30 29 H -3.46471 1.1263 1.34264 0
M  V30 30 H -4.14235 1.98811 -0.0511777 0
M  V30 31 H -3.45362 -0.447421 -0.4024 0
M  V30 32 H -3.13288 0.756009 -1.65706 0
M  V30 33 H -1.18228 -0.358755 -1.59187 0
M  V30 34 H -0.263723 -1.64823 0.234313 0
M  V30 35 H -2.47482 -1.22777 2.027 0
M  V30 36 H -0.760997 -1.12219 2.34294 0
M  V30 37 H -3.19064 -2.28557 0.445922 0
M  V30 38 H -2.5638 -2.07971 -1.2453 0
M  V30 39 H -1.80841 -3.2784 -0.180623 0
M  V30 40 H 1.3719 -0.800007 -3.32987 0
M  V30 41 H 0.848454 -1.71586 -1.96227 0
M  V30 END ATOM
M  V30 BEGIN BOND
M  V30 1 1 1 2
M  V30 2 1 2 3
M  V30 3 1 3 4
M  V30 4 1 4 5
M  V30 5 2 5 6
M  V30 6 1 5 7
M  V30 7 1 7 8
M  V30 8 1 8 9
M  V30 9 1 9 10
M  V30 10 1 10 11
M  V30 11 1 11 12
M  V30 12 1 12 13
M  V30 13 1 13 14
M  V30 14 1 13 15
M  V30 15 1 4 16
M  V30 16 1 12 7
M  V30 17 1 1 17
M  V30 18 1 1 18
M  V30 19 1 1 19
M  V30 20 1 2 20
M  V30 21 1 2 21
M  V30 22 1 3 22
M  V30 23 1 3 23
M  V30 24 1 4 24
M  V30 25 1 8 25
M  V30 26 1 8 26
M  V30 27 1 9 27
M  V30 28 1 9 28
M  V30 29 1 10 29
M  V30 30 1 10 30
M  V30 31 1 11 31
M  V30 32 1 11 32
M  V30 33 1 12 33
M  V30 34 1 13 34
M  V30 35 1 14 35
M  V30 36 1 14 36
M  V30 37 1 15 37
M  V30 38 1 15 38
M  V30 39 1 15 39
M  V30 40 1 16 40
M  V30 41 1 16 41
M  V30 END BOND
M  V30 END CTAB
M  END
