
     RDKit          3D

  0  0  0  0  0  0  0  0  0  0999 V3000
M  V30 BEGIN CTAB
M  V30 COUNTS 41 43 0 0 0
M  V30 BEGIN ATOM
M  V30 1 N -3.74093 -2.88792 2.05095 0
M  V30 2 C -2.70192 -2.17847 1.35836 0
M  V30 3 N -2.47978 -0.95374 1.62303 0
M  V30 4 C -1.46184 -0.151638 0.972216 0
M  V30 5 N -0.601499 -0.955443 0.143522 0
M  V30 6 C 0.640476 -0.442197 -0.396053 0
M  V30 7 C 1.65072 -0.355327 0.666414 0
M  V30 8 C 2.96049 0.165735 0.32771 0
M  V30 9 C 3.99351 -0.573524 -0.208009 0
M  V30 10 C 5.21355 -0.0496364 -0.497974 0
M  V30 11 C 5.44231 1.30166 -0.244783 0
M  V30 12 Cl 7.02435 1.98326 -0.630944 0
M  V30 13 C 4.43511 2.06458 0.287943 0
M  V30 14 Cl 4.73873 3.75165 0.60803 0
M  V30 15 C 3.22351 1.49744 0.56424 0
M  V30 16 C -0.916427 -2.30749 -0.123457 0
M  V30 17 N -0.118622 -3.06474 -1.05024 0
M  V30 18 N -1.90696 -2.90945 0.446029 0
M  V30 19 C -2.2314 0.809958 0.0849567 0
M  V30 20 C -3.28576 0.380183 -0.685072 0
M  V30 21 C -3.96402 1.26411 -1.51857 0
M  V30 22 C -3.59298 2.57318 -1.58212 0
M  V30 23 C -2.54468 3.02175 -0.821803 0
M  V30 24 C -1.87374 2.12012 0.00937959 0
M  V30 25 H -4.35978 -2.3725 2.71844 0
M  V30 26 H -3.90178 -3.89186 1.92231 0
M  V30 27 H -0.89123 0.381592 1.74093 0
M  V30 28 H 0.374974 0.605346 -0.739741 0
M  V30 29 H 0.879905 -0.98022 -1.3004 0
M  V30 30 H 1.25608 0.145916 1.55521 0
M  V30 31 H 1.83712 -1.42351 1.02779 0
M  V30 32 H 3.80321 -1.61105 -0.405784 0
M  V30 33 H 6.02935 -0.619768 -0.918651 0
M  V30 34 H 2.46789 2.17111 0.993253 0
M  V30 35 H -0.544788 -3.67586 -1.75467 0
M  V30 36 H 0.902211 -2.97581 -0.978879 0
M  V30 37 H -3.5952 -0.641106 -0.651141 0
M  V30 38 H -4.7812 0.906699 -2.11055 0
M  V30 39 H -4.09809 3.29414 -2.22295 0
M  V30 40 H -2.21734 4.06338 -0.8414 0
M  V30 41 H -1.06352 2.51946 0.582509 0
M  V30 END ATOM
M  V30 BEGIN BOND
M  V30 1 1 1 2
M  V30 2 2 2 3
M  V30 3 1 3 4
M  V30 4 1 4 5
M  V30 5 1 5 6
M  V30 6 1 6 7
M  V30 7 1 7 8
M  V30 8 2 8 9
M  V30 9 1 9 10
M  V30 10 2 10 11
M  V30 11 1 11 12
M  V30 12 1 11 13
M  V30 13 1 13 14
M  V30 14 2 13 15
M  V30 15 1 5 16
M  V30 16 1 16 17
M  V30 17 2 16 18
M  V30 18 1 4 19
M  V30 19 2 19 20
M  V30 20 1 20 21
M  V30 21 2 21 22
M  V30 22 1 22 23
M  V30 23 2 23 24
M  V30 24 1 18 2
M  V30 25 1 24 19
M  V30 26 1 15 8
M  V30 27 1 1 25
M  V30 28 1 1 26
M  V30 29 1 4 27
M  V30 30 1 6 28
M  V30 31 1 6 29
M  V30 32 1 7 30
M  V30 33 1 7 31
M  V30 34 1 9 32
M  V30 35 1 10 33
M  V30 36 1 15 34
M  V30 37 1 17 35
M  V30 38 1 17 36
M  V30 39 1 20 37
M  V30 40 1 21 38
M  V30 41 1 22 39
M  V30 42 1 23 40
M  V30 43 1 24 41
M  V30 END BOND
M  V30 END CTAB
M  END
