
     RDKit          3D

  0  0  0  0  0  0  0  0  0  0999 V3000
M  V30 BEGIN CTAB
M  V30 COUNTS 59 63 0 0 0
M  V30 BEGIN ATOM
M  V30 1 C 2.53858 6.30292 -2.31429 0
M  V30 2 S 3.45675 4.76368 -2.5658 0
M  V30 3 C 2.66123 3.38116 -1.76589 0
M  V30 4 N 1.74205 2.62037 -2.38662 0
M  V30 5 C 1.14725 1.57244 -1.76287 0
M  V30 6 N 0.19468 0.849256 -2.49621 0
M  V30 7 C 1.45728 1.24379 -0.474483 0
M  V30 8 C 2.42585 2.08564 0.107475 0
M  V30 9 O 2.73368 1.81304 1.29388 0
M  V30 10 N 3.00542 3.10447 -0.496278 0
M  V30 11 C 0.845364 0.1095 0.26831 0
M  V30 12 C 1.73459 -0.955491 0.671946 0
M  V30 13 C 1.44933 -1.74824 1.80515 0
M  V30 14 N 0.23564 -1.52453 2.50062 0
M  V30 15 N 2.2722 -2.70048 2.25201 0
M  V30 16 C 3.42897 -2.9353 1.61418 0
M  V30 17 N 3.75892 -2.21957 0.533722 0
M  V30 18 C 2.93158 -1.26046 0.0815863 0
M  V30 19 O 3.28501 -0.632981 -0.922594 0
M  V30 20 S 4.47113 -4.23092 2.2839 0
M  V30 21 C 4.03145 -5.78607 1.51068 0
M  V30 22 C -0.583128 -0.046348 0.173353 0
M  V30 23 C -1.47196 0.941944 0.646695 0
M  V30 24 N -2.74242 0.547832 0.47575 0
M  V30 25 N -2.6716 -0.627676 -0.0776076 0
M  V30 26 C -1.368 -1.02405 -0.279912 0
M  V30 27 C -1.10357 -2.30186 -0.979311 0
M  V30 28 C -1.98342 -3.33711 -1.14045 0
M  V30 29 C -1.53592 -4.43138 -1.78471 0
M  V30 30 C -0.243684 -4.42243 -2.22578 0
M  V30 31 S 0.284014 -2.88913 -1.72049 0
M  V30 32 C -3.89125 1.31398 0.848802 0
M  V30 33 C -5.09264 0.694459 1.12562 0
M  V30 34 C -6.22176 1.42675 1.49046 0
M  V30 35 C -6.18047 2.79951 1.58857 0
M  V30 36 C -4.98351 3.42252 1.31323 0
M  V30 37 C -3.8688 2.68564 0.951934 0
M  V30 38 H 3.00565 6.90518 -1.50818 0
M  V30 39 H 2.44946 6.88435 -3.2587 0
M  V30 40 H 1.47676 6.05937 -2.02424 0
M  V30 41 H -0.82049 1.07624 -2.55511 0
M  V30 42 H 0.520718 0.0143134 -3.03052 0
M  V30 43 H 3.72688 3.69863 -0.00311703 0
M  V30 44 H 0.869437 0.67653 1.35872 0
M  V30 45 H -0.481839 -2.28191 2.4687 0
M  V30 46 H 0.0245073 -0.661509 3.03203 0
M  V30 47 H 4.67715 -2.4193 0.0428057 0
M  V30 48 H 4.97297 -6.35762 1.33538 0
M  V30 49 H 3.26466 -6.35887 2.04545 0
M  V30 50 H 3.63679 -5.55649 0.482384 0
M  V30 51 H -1.2168 1.90759 1.09326 0
M  V30 52 H -3.02744 -3.27515 -0.751068 0
M  V30 53 H -2.15661 -5.33851 -1.97438 0
M  V30 54 H 0.287466 -5.22842 -2.76986 0
M  V30 55 H -5.19206 -0.376593 1.06733 0
M  V30 56 H -7.17238 0.934387 1.70932 0
M  V30 57 H -7.07199 3.35787 1.87508 0
M  V30 58 H -4.97125 4.50113 1.39579 0
M  V30 59 H -2.95044 3.23391 0.746295 0
M  V30 END ATOM
M  V30 BEGIN BOND
M  V30 1 1 1 2
M  V30 2 1 2 3
M  V30 3 2 3 4
M  V30 4 1 4 5
M  V30 5 1 5 6
M  V30 6 2 5 7
M  V30 7 1 7 8
M  V30 8 2 8 9
M  V30 9 1 8 10
M  V30 10 1 7 11
M  V30 11 1 11 12
M  V30 12 2 12 13
M  V30 13 1 13 14
M  V30 14 1 13 15
M  V30 15 2 15 16
M  V30 16 1 16 17
M  V30 17 1 17 18
M  V30 18 2 18 19
M  V30 19 1 16 20
M  V30 20 1 20 21
M  V30 21 1 11 22
M  V30 22 2 22 23
M  V30 23 1 23 24
M  V30 24 1 24 25
M  V30 25 2 25 26
M  V30 26 1 26 27
M  V30 27 2 27 28
M  V30 28 1 28 29
M  V30 29 2 29 30
M  V30 30 1 30 31
M  V30 31 1 24 32
M  V30 32 2 32 33
M  V30 33 1 33 34
M  V30 34 2 34 35
M  V30 35 1 35 36
M  V30 36 2 36 37
M  V30 37 1 10 3
M  V30 38 1 18 12
M  V30 39 1 26 22
M  V30 40 1 31 27
M  V30 41 1 37 32
M  V30 42 1 1 38
M  V30 43 1 1 39
M  V30 44 1 1 40
M  V30 45 1 6 41
M  V30 46 1 6 42
M  V30 47 1 10 43
M  V30 48 1 11 44
M  V30 49 1 14 45
M  V30 50 1 14 46
M  V30 51 1 17 47
M  V30 52 1 21 48
M  V30 53 1 21 49
M  V30 54 1 21 50
M  V30 55 1 23 51
M  V30 56 1 28 52
M  V30 57 1 29 53
M  V30 58 1 30 54
M  V30 59 1 33 55
M  V30 60 1 34 56
M  V30 61 1 35 57
M  V30 62 1 36 58
M  V30 63 1 37 59
M  V30 END BOND
M  V30 END CTAB
M  END
