
     RDKit          3D

  0  0  0  0  0  0  0  0  0  0999 V3000
M  V30 BEGIN CTAB
M  V30 COUNTS 22 22 0 0 0
M  V30 BEGIN ATOM
M  V30 1 F 4.61395 1.61184 0.799199 0
M  V30 2 C 4.08936 0.478082 0.228945 0
M  V30 3 O 2.70338 0.58188 -0.0229119 0
M  V30 4 C 1.7885 -0.283269 0.560172 0
M  V30 5 O 2.25952 -1.16616 1.32603 0
M  V30 6 C 0.358642 -0.20202 0.321097 0
M  V30 7 C -0.513587 -1.0751 0.915715 0
M  V30 8 C -1.89151 -1.00916 0.695293 0
M  V30 9 N -2.78978 -1.91754 1.31512 0
M  V30 10 C -2.35971 -0.0392915 -0.139952 0
M  V30 11 C -1.51513 0.860212 -0.759132 0
M  V30 12 C -0.141551 0.764121 -0.515039 0
M  V30 13 N -2.00965 1.87305 -1.63188 0
M  V30 14 F 4.76126 0.254619 -0.97706 0
M  V30 15 H 4.31098 -0.36958 0.936213 0
M  V30 16 H -0.164781 -1.85374 1.58297 0
M  V30 17 H -2.69941 -2.92547 1.06216 0
M  V30 18 H -3.51565 -1.63723 1.99185 0
M  V30 19 H -3.41398 0.0692617 -0.355246 0
M  V30 20 H 0.51273 1.48393 -1.01317 0
M  V30 21 H -1.53164 2.06495 -2.53924 0
M  V30 22 H -2.85191 2.43661 -1.38138 0
M  V30 END ATOM
M  V30 BEGIN BOND
M  V30 1 1 1 2
M  V30 2 1 2 3
M  V30 3 1 3 4
M  V30 4 2 4 5
M  V30 5 1 4 6
M  V30 6 2 6 7
M  V30 7 1 7 8
M  V30 8 1 8 9
M  V30 9 2 8 10
M  V30 10 1 10 11
M  V30 11 2 11 12
M  V30 12 1 11 13
M  V30 13 1 2 14
M  V30 14 1 12 6
M  V30 15 1 2 15
M  V30 16 1 7 16
M  V30 17 1 9 17
M  V30 18 1 9 18
M  V30 19 1 10 19
M  V30 20 1 12 20
M  V30 21 1 13 21
M  V30 22 1 13 22
M  V30 END BOND
M  V30 END CTAB
M  END
