
     RDKit          3D

  0  0  0  0  0  0  0  0  0  0999 V3000
M  V30 BEGIN CTAB
M  V30 COUNTS 32 34 0 0 0
M  V30 BEGIN ATOM
M  V30 1 N -5.23495 -0.486553 3.04424 0
M  V30 2 C -4.60685 -0.309295 1.77645 0
M  V30 3 N -4.86103 0.572819 0.813904 0
M  V30 4 N -4.18276 0.565057 -0.247048 0
M  V30 5 C -3.20976 -0.321126 -0.415316 0
M  V30 6 C -2.29328 -0.495552 -1.59599 0
M  V30 7 C -1.09763 0.360032 -1.35485 0
M  V30 8 C -0.0360458 0.345388 -2.41427 0
M  V30 9 C 0.984689 0.457744 -1.29983 0
M  V30 10 C 2.19584 -0.398872 -1.57896 0
M  V30 11 C 3.20106 -0.281188 -0.470077 0
M  V30 12 N 4.2104 0.57264 -0.334446 0
M  V30 13 N 4.95447 0.512965 0.681495 0
M  V30 14 C 4.73369 -0.401516 1.61912 0
M  V30 15 N 5.45009 -0.642423 2.84113 0
M  V30 16 S 3.36175 -1.20436 0.959276 0
M  V30 17 C -0.0603229 -0.231984 -0.409546 0
M  V30 18 S -3.29797 -1.18308 1.05768 0
M  V30 19 H -5.42446 0.315071 3.66964 0
M  V30 20 H -5.50663 -1.44063 3.34338 0
M  V30 21 H -2.07978 -1.5589 -1.77561 0
M  V30 22 H -2.85188 -0.0572782 -2.45791 0
M  V30 23 H -1.39436 1.36002 -0.998835 0
M  V30 24 H -0.0480405 1.16424 -3.13581 0
M  V30 25 H 0.0442002 -0.675895 -2.87022 0
M  V30 26 H 1.19717 1.48503 -0.953629 0
M  V30 27 H 1.86805 -1.46206 -1.59428 0
M  V30 28 H 2.66687 -0.124697 -2.54524 0
M  V30 29 H 5.03925 -0.467149 3.77593 0
M  V30 30 H 6.42604 -1.00917 2.80712 0
M  V30 31 H -0.0951389 0.120145 0.618192 0
M  V30 32 H -0.0526867 -1.34361 -0.55569 0
M  V30 END ATOM
M  V30 BEGIN BOND
M  V30 1 1 1 2
M  V30 2 2 2 3
M  V30 3 1 3 4
M  V30 4 2 4 5
M  V30 5 1 5 6
M  V30 6 1 6 7
M  V30 7 1 7 8
M  V30 8 1 8 9
M  V30 9 1 9 10
M  V30 10 1 10 11
M  V30 11 2 11 12
M  V30 12 1 12 13
M  V30 13 2 13 14
M  V30 14 1 14 15
M  V30 15 1 14 16
M  V30 16 1 9 17
M  V30 17 1 5 18
M  V30 18 1 18 2
M  V30 19 1 17 7
M  V30 20 1 16 11
M  V30 21 1 1 19
M  V30 22 1 1 20
M  V30 23 1 6 21
M  V30 24 1 6 22
M  V30 25 1 7 23
M  V30 26 1 8 24
M  V30 27 1 8 25
M  V30 28 1 9 26
M  V30 29 1 10 27
M  V30 30 1 10 28
M  V30 31 1 15 29
M  V30 32 1 15 30
M  V30 33 1 17 31
M  V30 34 1 17 32
M  V30 END BOND
M  V30 END CTAB
M  END
