
     RDKit          3D

  0  0  0  0  0  0  0  0  0  0999 V3000
M  V30 BEGIN CTAB
M  V30 COUNTS 24 24 0 0 0
M  V30 BEGIN ATOM
M  V30 1 N -3.3037 1.74508 -0.289764 0
M  V30 2 N -2.75997 0.454389 -0.0384249 0
M  V30 3 C -1.38161 0.294707 0.174205 0
M  V30 4 C -0.603773 1.46269 0.122512 0
M  V30 5 C 0.751213 1.40659 0.317771 0
M  V30 6 Cl 1.75255 2.84234 0.260468 0
M  V30 7 C 1.34145 0.172577 0.567886 0
M  V30 8 C 0.569117 -0.950242 0.614181 0
M  V30 9 C -0.829812 -0.931101 0.417885 0
M  V30 10 C -1.54805 -2.19427 0.490824 0
M  V30 11 O -0.864141 -3.3821 0.747615 0
M  V30 12 O -2.76265 -2.27399 0.333547 0
M  V30 13 S 3.08047 0.0821289 0.820982 0
M  V30 14 N 3.89287 0.666192 -0.575005 0
M  V30 15 O 3.46715 0.967607 1.98627 0
M  V30 16 O 3.45763 -1.34722 1.06176 0
M  V30 17 H -3.63659 2.20019 0.562265 0
M  V30 18 H -3.96107 1.68562 -1.07371 0
M  V30 19 H -3.48237 -0.277972 -0.0385576 0
M  V30 20 H -1.05033 2.42716 -0.0709333 0
M  V30 21 H 1.02488 -1.91345 0.808732 0
M  V30 22 H -0.993356 -4.11912 0.0421555 0
M  V30 23 H 3.25542 0.993205 -1.32139 0
M  V30 24 H 4.58468 -0.0110219 -0.962091 0
M  V30 END ATOM
M  V30 BEGIN BOND
M  V30 1 1 1 2
M  V30 2 1 2 3
M  V30 3 2 3 4
M  V30 4 1 4 5
M  V30 5 1 5 6
M  V30 6 2 5 7
M  V30 7 1 7 8
M  V30 8 2 8 9
M  V30 9 1 9 10
M  V30 10 1 10 11
M  V30 11 2 10 12
M  V30 12 1 7 13
M  V30 13 1 13 14
M  V30 14 2 13 15
M  V30 15 2 13 16
M  V30 16 1 9 3
M  V30 17 1 1 17
M  V30 18 1 1 18
M  V30 19 1 2 19
M  V30 20 1 4 20
M  V30 21 1 8 21
M  V30 22 1 11 22
M  V30 23 1 14 23
M  V30 24 1 14 24
M  V30 END BOND
M  V30 END CTAB
M  END
