
     RDKit          3D

  0  0  0  0  0  0  0  0  0  0999 V3000
M  V30 BEGIN CTAB
M  V30 COUNTS 45 46 0 0 0
M  V30 BEGIN ATOM
M  V30 1 C -3.75979 -0.524225 2.02744 0
M  V30 2 C -2.34034 -0.912849 2.17234 0
M  V30 3 C -1.48375 -1.07087 1.17642 0
M  V30 4 C -1.80349 -0.887796 -0.233111 0
M  V30 5 C -2.94567 -1.40061 -0.792865 0
M  V30 6 C -3.24124 -1.17096 -2.13479 0
M  V30 7 N -4.44774 -1.73934 -2.63102 0
M  V30 8 C -2.38215 -0.432774 -2.88318 0
M  V30 9 C -1.22285 0.0931253 -2.3396 0
M  V30 10 C -0.89893 -0.116927 -0.999714 0
M  V30 11 O 0.183805 0.346467 -0.353173 0
M  V30 12 C 1.15624 1.24934 -0.52704 0
M  V30 13 C 1.13157 2.19789 -1.53381 0
M  V30 14 C 2.16417 3.09484 -1.65177 0
M  V30 15 C 3.24346 3.08013 -0.780773 0
M  V30 16 N 4.31052 3.99861 -0.891593 0
M  V30 17 C 3.28254 2.1468 0.221873 0
M  V30 18 C 2.24443 1.22282 0.359455 0
M  V30 19 C 2.38522 0.209063 1.37802 0
M  V30 20 C 2.49738 -1.08434 1.15594 0
M  V30 21 C 2.49675 -1.69578 -0.208194 0
M  V30 22 N 2.63466 -1.94179 2.31191 0 CHG=1
M  V30 23 O 3.72013 -2.77736 2.31644 0 CHG=-1
M  V30 24 O 1.78032 -1.85211 3.18368 0
M  V30 25 N -1.8663 -1.13518 3.49259 0 CHG=1
M  V30 26 O -2.25325 -2.28489 4.12463 0 CHG=-1
M  V30 27 O -1.12576 -0.346836 4.09742 0
M  V30 28 H -4.05785 0.025487 2.96153 0
M  V30 29 H -4.43713 -1.3984 1.96363 0
M  V30 30 H -3.86315 0.143519 1.14751 0
M  V30 31 H -0.484369 -1.36705 1.45337 0
M  V30 32 H -3.62393 -1.99771 -0.183342 0
M  V30 33 H -4.41214 -2.26482 -3.52935 0
M  V30 34 H -5.35567 -1.66095 -2.15161 0
M  V30 35 H -2.62872 -0.261205 -3.93494 0
M  V30 36 H -0.576991 0.629168 -2.99797 0
M  V30 37 H 0.320435 2.30677 -2.22813 0
M  V30 38 H 2.16648 3.84702 -2.43508 0
M  V30 39 H 4.76281 4.35405 -0.0392337 0
M  V30 40 H 4.64227 4.3177 -1.81595 0
M  V30 41 H 4.10562 2.10422 0.920181 0
M  V30 42 H 2.3976 0.571294 2.42251 0
M  V30 43 H 2.72002 -0.953103 -0.976589 0
M  V30 44 H 3.31595 -2.45624 -0.199704 0
M  V30 45 H 1.54885 -2.20424 -0.434359 0
M  V30 END ATOM
M  V30 BEGIN BOND
M  V30 1 1 1 2
M  V30 2 2 2 3 CFG=2
M  V30 3 1 3 4
M  V30 4 2 4 5
M  V30 5 1 5 6
M  V30 6 1 6 7
M  V30 7 2 6 8
M  V30 8 1 8 9
M  V30 9 2 9 10
M  V30 10 1 10 11
M  V30 11 1 11 12
M  V30 12 2 12 13
M  V30 13 1 13 14
M  V30 14 2 14 15
M  V30 15 1 15 16
M  V30 16 1 15 17
M  V30 17 2 17 18
M  V30 18 1 18 19
M  V30 19 2 19 20 CFG=2
M  V30 20 1 20 21
M  V30 21 1 20 22
M  V30 22 1 22 23
M  V30 23 2 22 24
M  V30 24 1 2 25
M  V30 25 1 25 26
M  V30 26 2 25 27
M  V30 27 1 10 4
M  V30 28 1 18 12
M  V30 29 1 1 28
M  V30 30 1 1 29
M  V30 31 1 1 30
M  V30 32 1 3 31
M  V30 33 1 5 32
M  V30 34 1 7 33
M  V30 35 1 7 34
M  V30 36 1 8 35
M  V30 37 1 9 36
M  V30 38 1 13 37
M  V30 39 1 14 38
M  V30 40 1 16 39
M  V30 41 1 16 40
M  V30 42 1 17 41
M  V30 43 1 19 42
M  V30 44 1 21 43
M  V30 45 1 21 44
M  V30 46 1 21 45
M  V30 END BOND
M  V30 END CTAB
M  END
