
     RDKit          3D

  0  0  0  0  0  0  0  0  0  0999 V3000
M  V30 BEGIN CTAB
M  V30 COUNTS 41 43 0 0 0
M  V30 BEGIN ATOM
M  V30 1 N -4.47237 0.0883127 -1.24289 0
M  V30 2 C -3.00028 0.0868251 -1.37058 0
M  V30 3 C -2.53109 -1.22196 -0.87713 0
M  V30 4 C -1.25459 -1.25413 -0.123735 0
M  V30 5 C -1.46631 -1.5355 1.35198 0
M  V30 6 C -2.12382 -0.400811 2.07223 0
M  V30 7 C -1.87871 0.945865 1.56596 0
M  V30 8 C -1.32845 1.12666 0.207884 0
M  V30 9 C -2.46536 1.31556 -0.770625 0
M  V30 10 C -0.478145 0.0139331 -0.324433 0
M  V30 11 N 0.844572 -0.0207881 0.201736 0
M  V30 12 C 1.98544 0.127466 -0.638192 0
M  V30 13 O 1.77923 0.293464 -1.88616 0
M  V30 14 C 3.34375 0.100021 -0.157384 0
M  V30 15 N 3.68309 -0.0677048 1.13102 0
M  V30 16 C 4.94538 -0.0933405 1.57892 0
M  V30 17 C 5.97198 0.0602549 0.676347 0
M  V30 18 N 5.68379 0.230308 -0.61834 0
M  V30 19 C 4.39712 0.251046 -1.03574 0
M  V30 20 N 4.09465 0.433465 -2.42294 0
M  V30 21 H -4.67407 -0.419355 -0.351518 0
M  V30 22 H -4.84451 1.06021 -1.24327 0
M  V30 23 H -2.84862 0.163839 -2.49107 0
M  V30 24 H -2.47325 -1.93036 -1.75896 0
M  V30 25 H -3.29943 -1.72162 -0.211256 0
M  V30 26 H -0.614198 -2.08955 -0.495306 0
M  V30 27 H -2.07217 -2.47582 1.39315 0
M  V30 28 H -0.494676 -1.78444 1.8295 0
M  V30 29 H -3.2317 -0.636506 2.07156 0
M  V30 30 H -1.84625 -0.47704 3.15817 0
M  V30 31 H -2.8343 1.54519 1.67603 0
M  V30 32 H -1.17987 1.48386 2.278 0
M  V30 33 H -0.683782 2.0557 0.13051 0
M  V30 34 H -3.26819 1.85677 -0.183458 0
M  V30 35 H -2.17189 2.0854 -1.54639 0
M  V30 36 H -0.405887 0.16815 -1.42703 0
M  V30 37 H 1.04684 -0.155228 1.21964 0
M  V30 38 H 5.16945 -0.234677 2.65189 0
M  V30 39 H 7.006 0.0399561 1.03817 0
M  V30 40 H 4.09438 -0.410107 -3.0182 0
M  V30 41 H 3.89624 1.39668 -2.73905 0
M  V30 END ATOM
M  V30 BEGIN BOND
M  V30 1 1 1 2
M  V30 2 1 2 3
M  V30 3 1 3 4
M  V30 4 1 4 5
M  V30 5 1 5 6
M  V30 6 1 6 7
M  V30 7 1 7 8
M  V30 8 1 8 9
M  V30 9 1 8 10
M  V30 10 1 10 11
M  V30 11 1 11 12
M  V30 12 2 12 13
M  V30 13 1 12 14
M  V30 14 2 14 15
M  V30 15 1 15 16
M  V30 16 2 16 17
M  V30 17 1 17 18
M  V30 18 2 18 19
M  V30 19 1 19 20
M  V30 20 1 9 2
M  V30 21 1 19 14
M  V30 22 1 10 4
M  V30 23 1 1 21
M  V30 24 1 1 22
M  V30 25 1 2 23
M  V30 26 1 3 24
M  V30 27 1 3 25
M  V30 28 1 4 26
M  V30 29 1 5 27
M  V30 30 1 5 28
M  V30 31 1 6 29
M  V30 32 1 6 30
M  V30 33 1 7 31
M  V30 34 1 7 32
M  V30 35 1 8 33
M  V30 36 1 9 34
M  V30 37 1 9 35
M  V30 38 1 10 36
M  V30 39 1 11 37
M  V30 40 1 16 38
M  V30 41 1 17 39
M  V30 42 1 20 40
M  V30 43 1 20 41
M  V30 END BOND
M  V30 END CTAB
M  END
