
     RDKit          3D

  0  0  0  0  0  0  0  0  0  0999 V3000
M  V30 BEGIN CTAB
M  V30 COUNTS 32 34 0 0 0
M  V30 BEGIN ATOM
M  V30 1 N -2.22702 0.531439 -1.4332 0
M  V30 2 C -2.06876 0.322594 -0.0201436 0
M  V30 3 C -0.641692 0.1521 0.415477 0
M  V30 4 N -0.692582 -0.0488112 1.87888 0
M  V30 5 C 0.174751 1.40929 0.234965 0
M  V30 6 C 1.42199 1.21235 1.11642 0
M  V30 7 C 1.99581 -0.143959 0.802006 0
M  V30 8 N 1.42361 -0.657066 -0.430212 0
M  V30 9 C 0.0581171 -1.0274 -0.138338 0
M  V30 10 C -0.565301 -2.19733 -0.725155 0
M  V30 11 C -0.00203077 -2.34667 0.664976 0
M  V30 12 C 1.53007 0.329188 -1.47599 0
M  V30 13 C 0.733922 1.55771 -1.15615 0
M  V30 14 H -2.41554 -0.34422 -1.97049 0
M  V30 15 H -2.82405 1.32095 -1.69455 0
M  V30 16 H -2.71404 -0.520499 0.263803 0
M  V30 17 H -2.51266 1.22154 0.475685 0
M  V30 18 H -0.766335 0.851724 2.37636 0
M  V30 19 H -1.56389 -0.593715 2.08758 0
M  V30 20 H -0.397883 2.28399 0.559485 0
M  V30 21 H 1.19981 1.36786 2.16831 0
M  V30 22 H 2.17708 1.96372 0.778479 0
M  V30 23 H 3.10725 -0.121293 0.729613 0
M  V30 24 H 1.76613 -0.887962 1.59901 0
M  V30 25 H -0.0229783 -2.72706 -1.55705 0
M  V30 26 H -1.64369 -2.30804 -0.791366 0
M  V30 27 H 0.884419 -2.96768 0.744561 0
M  V30 28 H -0.689882 -2.36666 1.5345 0
M  V30 29 H 2.59837 0.627728 -1.53126 0
M  V30 30 H 1.28234 -0.110827 -2.45971 0
M  V30 31 H 0.00764485 1.73732 -1.93305 0
M  V30 32 H 1.38702 2.47968 -1.11344 0
M  V30 END ATOM
M  V30 BEGIN BOND
M  V30 1 1 1 2
M  V30 2 1 2 3
M  V30 3 1 3 4
M  V30 4 1 3 5
M  V30 5 1 5 6
M  V30 6 1 6 7
M  V30 7 1 7 8
M  V30 8 1 8 9
M  V30 9 1 9 10
M  V30 10 1 10 11
M  V30 11 1 8 12
M  V30 12 1 12 13
M  V30 13 1 9 3
M  V30 14 1 13 5
M  V30 15 1 11 9
M  V30 16 1 1 14
M  V30 17 1 1 15
M  V30 18 1 2 16
M  V30 19 1 2 17
M  V30 20 1 4 18
M  V30 21 1 4 19
M  V30 22 1 5 20
M  V30 23 1 6 21
M  V30 24 1 6 22
M  V30 25 1 7 23
M  V30 26 1 7 24
M  V30 27 1 10 25
M  V30 28 1 10 26
M  V30 29 1 11 27
M  V30 30 1 11 28
M  V30 31 1 12 29
M  V30 32 1 12 30
M  V30 33 1 13 31
M  V30 34 1 13 32
M  V30 END BOND
M  V30 END CTAB
M  END
