
     RDKit          3D

  0  0  0  0  0  0  0  0  0  0999 V3000
M  V30 BEGIN CTAB
M  V30 COUNTS 39 41 0 0 0
M  V30 BEGIN ATOM
M  V30 1 N 4.71244 0.0950307 2.40814 0
M  V30 2 C 4.70061 0.137453 0.9912 0
M  V30 3 C 3.54478 -0.227322 0.289362 0
M  V30 4 C 3.49892 -0.197487 -1.0839 0
M  V30 5 O 2.39113 -0.543477 -1.82759 0
M  V30 6 C 1.1266 -0.794464 -1.37483 0
M  V30 7 C 0.398042 0.206554 -0.77797 0
M  V30 8 C 0.915912 1.56669 -0.630199 0
M  V30 9 N 1.30611 2.65659 -0.525136 0
M  V30 10 C -0.88842 -0.0528028 -0.319599 0
M  V30 11 O -1.61372 0.984761 0.288008 0
M  V30 12 C -2.8978 0.718135 0.74335 0
M  V30 13 C -3.95569 0.909945 -0.119854 0
M  V30 14 C -5.26037 0.673236 0.239878 0
M  V30 15 N -6.36195 0.865315 -0.635923 0
M  V30 16 C -5.50134 0.222506 1.53124 0
M  V30 17 C -4.46189 0.0219735 2.41571 0
M  V30 18 C -3.1689 0.269406 2.02054 0
M  V30 19 C -1.43655 -1.30501 -0.461059 0
M  V30 20 C -0.718285 -2.33124 -1.06239 0
M  V30 21 C 0.54835 -2.04933 -1.50519 0
M  V30 22 C 4.66477 0.214897 -1.73808 0
M  V30 23 C 5.80038 0.573034 -1.04453 0
M  V30 24 C 5.83537 0.539816 0.32886 0
M  V30 25 H 4.59999 0.979272 2.98482 0
M  V30 26 H 4.83377 -0.82115 2.89236 0
M  V30 27 H 2.67571 -0.542816 0.841718 0
M  V30 28 H -3.76267 1.26153 -1.12581 0
M  V30 29 H -7.13076 1.54189 -0.461527 0
M  V30 30 H -6.43678 0.306074 -1.52416 0
M  V30 31 H -6.53202 0.0372261 1.81026 0
M  V30 32 H -4.66055 -0.328105 3.41558 0
M  V30 33 H -2.33722 0.124444 2.68162 0
M  V30 34 H -2.44713 -1.52151 -0.10475 0
M  V30 35 H -1.17903 -3.31401 -1.16124 0
M  V30 36 H 1.10692 -2.83943 -1.97047 0
M  V30 37 H 4.65792 0.247671 -2.80993 0
M  V30 38 H 6.69845 0.890879 -1.55388 0
M  V30 39 H 6.73491 0.823821 0.871837 0
M  V30 END ATOM
M  V30 BEGIN BOND
M  V30 1 1 1 2
M  V30 2 2 2 3
M  V30 3 1 3 4
M  V30 4 1 4 5
M  V30 5 1 5 6
M  V30 6 2 6 7
M  V30 7 1 7 8
M  V30 8 3 8 9
M  V30 9 1 7 10
M  V30 10 1 10 11
M  V30 11 1 11 12
M  V30 12 2 12 13
M  V30 13 1 13 14
M  V30 14 1 14 15
M  V30 15 2 14 16
M  V30 16 1 16 17
M  V30 17 2 17 18
M  V30 18 2 10 19
M  V30 19 1 19 20
M  V30 20 2 20 21
M  V30 21 2 4 22
M  V30 22 1 22 23
M  V30 23 2 23 24
M  V30 24 1 24 2
M  V30 25 1 21 6
M  V30 26 1 18 12
M  V30 27 1 1 25
M  V30 28 1 1 26
M  V30 29 1 3 27
M  V30 30 1 13 28
M  V30 31 1 15 29
M  V30 32 1 15 30
M  V30 33 1 16 31
M  V30 34 1 17 32
M  V30 35 1 18 33
M  V30 36 1 19 34
M  V30 37 1 20 35
M  V30 38 1 21 36
M  V30 39 1 22 37
M  V30 40 1 23 38
M  V30 41 1 24 39
M  V30 END BOND
M  V30 END CTAB
M  END
