
     RDKit          3D

  0  0  0  0  0  0  0  0  0  0999 V3000
M  V30 BEGIN CTAB
M  V30 COUNTS 28 28 0 0 0
M  V30 BEGIN ATOM
M  V30 1 C -2.58742 -1.49469 0.498185 0
M  V30 2 C -1.22702 -1.05525 0.929418 0
M  V30 3 C -0.55296 -0.142858 -0.0663104 0
M  V30 4 C 0.79302 0.230173 0.468027 0
M  V30 5 C 1.72225 -0.936058 0.710962 0
M  V30 6 C 2.02567 0.114214 -0.339351 0
M  V30 7 C 3.15202 1.05484 0.0421021 0
M  V30 8 C -1.3749 1.14708 -0.145968 0
M  V30 9 N -0.78407 2.07598 -1.08834 0
M  V30 10 N -0.554149 -0.728234 -1.35251 0
M  V30 11 H -2.63592 -2.61166 0.42127 0
M  V30 12 H -2.89509 -1.09562 -0.479599 0
M  V30 13 H -3.30917 -1.20563 1.291 0
M  V30 14 H -1.23029 -0.522297 1.90544 0
M  V30 15 H -0.579303 -1.93776 1.05752 0
M  V30 16 H 0.763281 0.975749 1.30498 0
M  V30 17 H 1.47909 -1.93336 0.330494 0
M  V30 18 H 2.32808 -0.950293 1.63679 0
M  V30 19 H 1.97633 -0.168283 -1.40496 0
M  V30 20 H 3.12472 1.26605 1.12739 0
M  V30 21 H 3.00926 2.01388 -0.518347 0
M  V30 22 H 4.15696 0.622085 -0.209507 0
M  V30 23 H -2.42188 0.92351 -0.451739 0
M  V30 24 H -1.33469 1.60571 0.859446 0
M  V30 25 H -0.934066 1.77778 -2.07162 0
M  V30 26 H -1.2865 2.98954 -0.949108 0
M  V30 27 H 0.0393666 -0.327703 -2.06348 0
M  V30 28 H -0.862641 -1.68689 -1.44219 0
M  V30 END ATOM
M  V30 BEGIN BOND
M  V30 1 1 1 2
M  V30 2 1 2 3
M  V30 3 1 3 4
M  V30 4 1 4 5
M  V30 5 1 5 6
M  V30 6 1 6 7
M  V30 7 1 3 8
M  V30 8 1 8 9
M  V30 9 1 3 10
M  V30 10 1 6 4
M  V30 11 1 1 11
M  V30 12 1 1 12
M  V30 13 1 1 13
M  V30 14 1 2 14
M  V30 15 1 2 15
M  V30 16 1 4 16
M  V30 17 1 5 17
M  V30 18 1 5 18
M  V30 19 1 6 19
M  V30 20 1 7 20
M  V30 21 1 7 21
M  V30 22 1 7 22
M  V30 23 1 8 23
M  V30 24 1 8 24
M  V30 25 1 9 25
M  V30 26 1 9 26
M  V30 27 1 10 27
M  V30 28 1 10 28
M  V30 END BOND
M  V30 END CTAB
M  END
