
     RDKit          3D

  0  0  0  0  0  0  0  0  0  0999 V3000
M  V30 BEGIN CTAB
M  V30 COUNTS 20 20 0 0 0
M  V30 BEGIN ATOM
M  V30 1 C -3.60261 -1.52565 0.404619 0
M  V30 2 S -2.05561 -1.79475 1.30526 0
M  V30 3 C -0.78704 -0.713887 0.617607 0
M  V30 4 N 0.47465 -1.13911 0.379295 0
M  V30 5 C 1.40115 -0.342311 -0.177577 0
M  V30 6 N 2.72958 -0.775955 -0.466094 0
M  V30 7 N 3.68876 -0.812713 0.505132 0
M  V30 8 C 1.10011 0.969276 -0.535076 0
M  V30 9 C -0.191848 1.38203 -0.285811 0
M  V30 10 N -1.08576 0.552079 0.273536 0
M  V30 11 N -0.601565 2.69196 -0.612848 0
M  V30 12 H -3.51573 -0.522379 -0.0814413 0
M  V30 13 H -3.77998 -2.23652 -0.398968 0
M  V30 14 H -4.47762 -1.52356 1.08783 0
M  V30 15 H 2.95111 -1.06524 -1.46131 0
M  V30 16 H 4.14667 0.0950227 0.570148 0
M  V30 17 H 3.38646 -1.22616 1.38728 0
M  V30 18 H 1.81792 1.63701 -0.990922 0
M  V30 19 H -1.27351 2.80399 -1.41061 0
M  V30 20 H -0.325151 3.54688 -0.110046 0
M  V30 END ATOM
M  V30 BEGIN BOND
M  V30 1 1 1 2
M  V30 2 1 2 3
M  V30 3 2 3 4
M  V30 4 1 4 5
M  V30 5 1 5 6
M  V30 6 1 6 7
M  V30 7 2 5 8
M  V30 8 1 8 9
M  V30 9 2 9 10
M  V30 10 1 9 11
M  V30 11 1 10 3
M  V30 12 1 1 12
M  V30 13 1 1 13
M  V30 14 1 1 14
M  V30 15 1 6 15
M  V30 16 1 7 16
M  V30 17 1 7 17
M  V30 18 1 8 18
M  V30 19 1 11 19
M  V30 20 1 11 20
M  V30 END BOND
M  V30 END CTAB
M  END
