
     RDKit          3D

  0  0  0  0  0  0  0  0  0  0999 V3000
M  V30 BEGIN CTAB
M  V30 COUNTS 27 27 0 0 0
M  V30 BEGIN ATOM
M  V30 1 C -3.11177 1.50768 0.41341 0
M  V30 2 N -2.57969 0.16649 0.305429 0
M  V30 3 C -1.19091 0.0098927 0.0664299 0
M  V30 4 C -0.756189 -0.0455743 -1.22399 0
M  V30 5 C 0.60484 -0.198927 -1.43628 0
M  V30 6 C 1.49902 -0.293347 -0.388607 0
M  V30 7 C 1.01997 -0.232949 0.89703 0
M  V30 8 C -0.335296 -0.0799777 1.16044 0
M  V30 9 N 1.89111 -0.324519 2.00621 0
M  V30 10 S 3.233 -0.48876 -0.682084 0
M  V30 11 O 3.62047 -1.81295 -0.0440292 0
M  V30 12 O 3.49546 -0.645389 -2.15387 0
M  V30 13 N 4.16792 0.732745 -0.053518 0
M  V30 14 C -3.3937 -1.0092 0.42935 0
M  V30 15 H -3.50461 1.85409 -0.561006 0
M  V30 16 H -2.29898 2.21054 0.688607 0
M  V30 17 H -3.86673 1.58042 1.22558 0
M  V30 18 H -1.4267 0.0249021 -2.08259 0
M  V30 19 H 1.01925 -0.250547 -2.43475 0
M  V30 20 H -0.753103 -0.02811 2.13635 0
M  V30 21 H 2.48726 0.45101 2.35957 0
M  V30 22 H 1.92909 -1.24793 2.49955 0
M  V30 23 H 4.39506 0.751341 0.924961 0
M  V30 24 H 4.6095 1.40344 -0.680124 0
M  V30 25 H -3.1161 -1.554 1.36207 0
M  V30 26 H -3.16305 -1.70005 -0.422907 0
M  V30 27 H -4.47511 -0.780335 0.417702 0
M  V30 END ATOM
M  V30 BEGIN BOND
M  V30 1 1 1 2
M  V30 2 1 2 3
M  V30 3 2 3 4
M  V30 4 1 4 5
M  V30 5 2 5 6
M  V30 6 1 6 7
M  V30 7 2 7 8
M  V30 8 1 7 9
M  V30 9 1 6 10
M  V30 10 2 10 11
M  V30 11 2 10 12
M  V30 12 1 10 13
M  V30 13 1 2 14
M  V30 14 1 8 3
M  V30 15 1 1 15
M  V30 16 1 1 16
M  V30 17 1 1 17
M  V30 18 1 4 18
M  V30 19 1 5 19
M  V30 20 1 8 20
M  V30 21 1 9 21
M  V30 22 1 9 22
M  V30 23 1 13 23
M  V30 24 1 13 24
M  V30 25 1 14 25
M  V30 26 1 14 26
M  V30 27 1 14 27
M  V30 END BOND
M  V30 END CTAB
M  END
