
     RDKit          3D

  0  0  0  0  0  0  0  0  0  0999 V3000
M  V30 BEGIN CTAB
M  V30 COUNTS 18 18 0 0 0
M  V30 BEGIN ATOM
M  V30 1 N -3.83113 0.0893141 0.67828 0
M  V30 2 C -2.75574 0.977218 0.581778 0
M  V30 3 S -2.95764 2.55613 0.829922 0
M  V30 4 C -1.41213 0.472465 0.248498 0
M  V30 5 C -1.09616 -0.722103 -0.342638 0
M  V30 6 C 0.207528 -0.980404 -0.555693 0
M  V30 7 C 1.10604 -0.0302983 -0.164859 0
M  V30 8 S 0.117629 1.19053 0.485194 0
M  V30 9 S 2.86388 -0.106351 -0.321696 0
M  V30 10 O 3.29107 1.11916 -1.11844 0
M  V30 11 O 3.20068 -1.32522 -1.10006 0
M  V30 12 N 3.59726 -0.00861005 1.20258 0
M  V30 13 H -4.17471 -0.419384 -0.182201 0
M  V30 14 H -4.35046 -0.130677 1.552 0
M  V30 15 H -1.91912 -1.42353 -0.620173 0
M  V30 16 H 0.54193 -1.93624 -1.03417 0
M  V30 17 H 4.56913 0.314733 1.21162 0
M  V30 18 H 3.00195 0.363267 1.96298 0
M  V30 END ATOM
M  V30 BEGIN BOND
M  V30 1 1 1 2
M  V30 2 2 2 3
M  V30 3 1 2 4
M  V30 4 2 4 5
M  V30 5 1 5 6
M  V30 6 2 6 7
M  V30 7 1 7 8
M  V30 8 1 7 9
M  V30 9 2 9 10
M  V30 10 2 9 11
M  V30 11 1 9 12
M  V30 12 1 8 4
M  V30 13 1 1 13
M  V30 14 1 1 14
M  V30 15 1 5 15
M  V30 16 1 6 16
M  V30 17 1 12 17
M  V30 18 1 12 18
M  V30 END BOND
M  V30 END CTAB
M  END
