
     RDKit          3D

  0  0  0  0  0  0  0  0  0  0999 V3000
M  V30 BEGIN CTAB
M  V30 COUNTS 82 83 0 0 0
M  V30 BEGIN ATOM
M  V30 1 C 0.327134 0.616571 -1.36994 0 CFG=1
M  V30 2 C 0.322434 2.08203 -1.28173 0
M  V30 3 C 0.356541 2.80841 -0.00716076 0
M  V30 4 C 1.55355 2.65085 0.849769 0
M  V30 5 N 1.4252 3.50327 2.06079 0
M  V30 6 C 1.4642 4.91141 1.92707 0
M  V30 7 N 2.28299 5.56476 0.973647 0
M  V30 8 N 0.707511 5.59619 2.72631 0
M  V30 9 N 1.45724 -0.0360626 -0.840902 0
M  V30 10 C 2.46164 -0.604799 -1.68382 0
M  V30 11 O 2.3318 -0.521064 -2.92237 0
M  V30 12 C 3.64216 -1.28713 -1.10476 0 CFG=2
M  V30 13 C 4.38283 -0.273438 -0.280034 0
M  V30 14 C 5.60237 -0.810623 0.382316 0
M  V30 15 C 6.86607 -0.688439 -0.14758 0
M  V30 16 C 7.9732 -1.21002 0.477387 0
M  V30 17 C 7.87033 -1.88526 1.67406 0
M  V30 18 O 9.00431 -2.4112 2.29958 0
M  V30 19 C 6.60302 -2.00486 2.20151 0
M  V30 20 C 5.48863 -1.49129 1.5915 0
M  V30 21 N 4.48974 -1.81428 -2.13376 0
M  V30 22 C 4.05351 -2.81257 -3.05815 0
M  V30 23 N 3.36224 -3.9811 -2.63256 0
M  V30 24 N 4.27677 -2.68018 -4.31891 0
M  V30 25 C -0.971085 0.0644301 -0.815564 0
M  V30 26 O -0.799113 -0.826148 0.0379527 0
M  V30 27 N -2.16551 0.578301 -1.29157 0
M  V30 28 C -3.51608 0.163777 -0.881279 0 CFG=1
M  V30 29 C -3.56512 -1.31012 -1.06951 0
M  V30 30 C -4.85416 -1.97544 -0.761713 0
M  V30 31 C -5.16928 -2.50417 0.449673 0
M  V30 32 C -6.37251 -3.12712 0.673838 0
M  V30 33 C -7.26893 -3.20775 -0.368887 0
M  V30 34 C -6.96877 -2.67902 -1.60206 0
M  V30 35 C -5.77123 -2.06391 -1.80888 0
M  V30 36 C -3.75822 0.72385 0.427813 0
M  V30 37 O -2.7698 0.769071 1.24135 0
M  V30 38 N -4.97373 1.23741 0.89941 0
M  V30 39 C -6.1828 1.21527 0.126685 0
M  V30 40 C -5.02648 1.87208 2.20023 0
M  V30 41 C -5.33383 0.978427 3.3207 0
M  V30 42 O -5.59633 -0.36282 3.26572 0
M  V30 43 O -5.35963 1.51589 4.48694 0
M  V30 44 H 0.242049 0.36043 -2.47079 0
M  V30 45 H 1.25752 2.40678 -1.90223 0
M  V30 46 H -0.530803 2.45716 -1.94657 0
M  V30 47 H 0.227451 3.9112 -0.246239 0
M  V30 48 H -0.542402 2.53731 0.656523 0
M  V30 49 H 1.74916 1.66023 1.24535 0
M  V30 50 H 2.45229 2.9661 0.278171 0
M  V30 51 H 1.3082 3.07612 2.98762 0
M  V30 52 H 3.14815 5.11294 0.648014 0
M  V30 53 H 2.01019 6.49186 0.60806 0
M  V30 54 H 0.0891215 5.16275 3.4438 0
M  V30 55 H 1.59505 -0.169312 0.169158 0
M  V30 56 H 3.29588 -2.11922 -0.420628 0
M  V30 57 H 4.70468 0.539552 -0.967449 0
M  V30 58 H 3.70031 0.113341 0.512869 0
M  V30 59 H 7.01027 -0.154334 -1.0878 0
M  V30 60 H 8.95068 -1.09669 0.0351011 0
M  V30 61 H 9.3036 -3.36129 2.08694 0
M  V30 62 H 6.54726 -2.54737 3.15591 0
M  V30 63 H 4.51693 -1.59625 2.01922 0
M  V30 64 H 5.45795 -1.4685 -2.23195 0
M  V30 65 H 3.64446 -4.88689 -3.06541 0
M  V30 66 H 2.60851 -3.98063 -1.92849 0
M  V30 67 H 4.78143 -1.83134 -4.64663 0
M  V30 68 H -2.17329 1.34992 -2.0321 0
M  V30 69 H -4.2452 0.653903 -1.60652 0
M  V30 70 H -3.31913 -1.59479 -2.14349 0
M  V30 71 H -2.75232 -1.84303 -0.496937 0
M  V30 72 H -4.45765 -2.43333 1.25704 0
M  V30 73 H -6.63244 -3.55514 1.65017 0
M  V30 74 H -8.23322 -3.6883 -0.248641 0
M  V30 75 H -7.66404 -2.73495 -2.43501 0
M  V30 76 H -5.52883 -1.63903 -2.79472 0
M  V30 77 H -6.76894 0.267963 0.316407 0
M  V30 78 H -6.0359 1.25234 -0.96689 0
M  V30 79 H -6.83868 2.10156 0.351726 0
M  V30 80 H -4.03574 2.34915 2.43548 0
M  V30 81 H -5.77424 2.69684 2.20153 0
M  V30 82 H -4.95116 -1.05025 3.66629 0
M  V30 END ATOM
M  V30 BEGIN BOND
M  V30 1 1 1 2
M  V30 2 1 2 3
M  V30 3 1 3 4
M  V30 4 1 4 5
M  V30 5 1 5 6
M  V30 6 1 6 7
M  V30 7 2 6 8 CFG=2
M  V30 8 1 1 9
M  V30 9 1 9 10
M  V30 10 2 10 11
M  V30 11 1 10 12
M  V30 12 1 12 13
M  V30 13 1 13 14
M  V30 14 2 14 15
M  V30 15 1 15 16
M  V30 16 2 16 17
M  V30 17 1 17 18
M  V30 18 1 17 19
M  V30 19 2 19 20
M  V30 20 1 12 21
M  V30 21 1 21 22
M  V30 22 1 22 23
M  V30 23 2 22 24 CFG=2
M  V30 24 1 1 25
M  V30 25 2 25 26
M  V30 26 1 25 27
M  V30 27 1 27 28
M  V30 28 1 28 29
M  V30 29 1 29 30
M  V30 30 2 30 31
M  V30 31 1 31 32
M  V30 32 2 32 33
M  V30 33 1 33 34
M  V30 34 2 34 35
M  V30 35 1 28 36
M  V30 36 2 36 37
M  V30 37 1 36 38
M  V30 38 1 38 39
M  V30 39 1 38 40
M  V30 40 1 40 41
M  V30 41 1 41 42
M  V30 42 2 41 43
M  V30 43 1 20 14
M  V30 44 1 35 30
M  V30 45 1 1 44 CFG=3
M  V30 46 1 2 45
M  V30 47 1 2 46
M  V30 48 1 3 47
M  V30 49 1 3 48
M  V30 50 1 4 49
M  V30 51 1 4 50
M  V30 52 1 5 51
M  V30 53 1 7 52
M  V30 54 1 7 53
M  V30 55 1 8 54
M  V30 56 1 9 55
M  V30 57 1 12 56 CFG=1
M  V30 58 1 13 57
M  V30 59 1 13 58
M  V30 60 1 15 59
M  V30 61 1 16 60
M  V30 62 1 18 61
M  V30 63 1 19 62
M  V30 64 1 20 63
M  V30 65 1 21 64
M  V30 66 1 23 65
M  V30 67 1 23 66
M  V30 68 1 24 67
M  V30 69 1 27 68
M  V30 70 1 28 69 CFG=3
M  V30 71 1 29 70
M  V30 72 1 29 71
M  V30 73 1 31 72
M  V30 74 1 32 73
M  V30 75 1 33 74
M  V30 76 1 34 75
M  V30 77 1 35 76
M  V30 78 1 39 77
M  V30 79 1 39 78
M  V30 80 1 39 79
M  V30 81 1 40 80
M  V30 82 1 40 81
M  V30 83 1 42 82
M  V30 END BOND
M  V30 END CTAB
M  END
