
     RDKit          3D

  0  0  0  0  0  0  0  0  0  0999 V3000
M  V30 BEGIN CTAB
M  V30 COUNTS 29 29 0 0 0
M  V30 BEGIN ATOM
M  V30 1 C -3.24097 0.698165 0.0374525 0
M  V30 2 C -2.05882 -0.281169 0.10494 0
M  V30 3 C -1.26788 0.0676469 1.30549 0
M  V30 4 C 0.144324 -0.376796 1.3202 0
M  V30 5 C 0.756692 -0.597925 -0.0251824 0
M  V30 6 C 0.0528769 0.334234 -0.995875 0
M  V30 7 C -1.34353 -0.194458 -1.19493 0
M  V30 8 N 0.643366 -1.97712 -0.441943 0
M  V30 9 C 2.19653 -0.234053 -0.0727975 0
M  V30 10 N 2.84064 0.223098 0.943587 0
M  V30 11 O 4.15365 0.538475 0.842202 0
M  V30 12 N 2.86298 -0.411443 -1.31386 0
M  V30 13 H -2.79279 1.68801 -0.188024 0
M  V30 14 H -3.85187 0.404723 -0.846931 0
M  V30 15 H -3.82312 0.699051 0.960179 0
M  V30 16 H -2.50499 -1.2849 0.21009 0
M  V30 17 H -1.36503 1.17703 1.49907 0
M  V30 18 H -1.7823 -0.398393 2.19811 0
M  V30 19 H 0.749657 0.431745 1.82567 0
M  V30 20 H 0.30525 -1.28775 1.93481 0
M  V30 21 H -0.0373841 1.31715 -0.476761 0
M  V30 22 H 0.600701 0.427 -1.93584 0
M  V30 23 H -1.84067 0.49341 -1.9341 0
M  V30 24 H -1.30024 -1.18665 -1.71172 0
M  V30 25 H 1.22621 -2.53639 0.234251 0
M  V30 26 H -0.336556 -2.3433 -0.314773 0
M  V30 27 H 4.78432 0.699088 1.59682 0
M  V30 28 H 3.34759 0.388079 -1.76849 0
M  V30 29 H 2.88137 -1.33609 -1.79164 0
M  V30 END ATOM
M  V30 BEGIN BOND
M  V30 1 1 1 2
M  V30 2 1 2 3
M  V30 3 1 3 4
M  V30 4 1 4 5
M  V30 5 1 5 6
M  V30 6 1 6 7
M  V30 7 1 5 8
M  V30 8 1 5 9
M  V30 9 2 9 10 CFG=2
M  V30 10 1 10 11
M  V30 11 1 9 12
M  V30 12 1 7 2
M  V30 13 1 1 13
M  V30 14 1 1 14
M  V30 15 1 1 15
M  V30 16 1 2 16
M  V30 17 1 3 17
M  V30 18 1 3 18
M  V30 19 1 4 19
M  V30 20 1 4 20
M  V30 21 1 6 21
M  V30 22 1 6 22
M  V30 23 1 7 23
M  V30 24 1 7 24
M  V30 25 1 8 25
M  V30 26 1 8 26
M  V30 27 1 11 27
M  V30 28 1 12 28
M  V30 29 1 12 29
M  V30 END BOND
M  V30 END CTAB
M  END
