
     RDKit          3D

  0  0  0  0  0  0  0  0  0  0999 V3000
M  V30 BEGIN CTAB
M  V30 COUNTS 26 27 0 0 0
M  V30 BEGIN ATOM
M  V30 1 N -4.53088 -0.162684 0.822648 0
M  V30 2 C -3.15167 -0.111579 0.406186 0
M  V30 3 N -2.17813 0.256109 1.25939 0
M  V30 4 C -0.880383 0.315642 0.907123 0
M  V30 5 C -0.46098 -0.00387154 -0.378583 0
M  V30 6 C -1.44618 -0.383188 -1.26697 0
M  V30 7 C -2.78027 -0.438237 -0.883575 0
M  V30 8 N -3.81002 -0.823614 -1.77396 0
M  V30 9 O 0.87576 0.0564051 -0.745094 0
M  V30 10 C 1.82118 0.449903 0.209466 0
M  V30 11 C 3.22957 0.465311 -0.343229 0
M  V30 12 C 4.33334 0.886699 0.639692 0
M  V30 13 C 4.17943 -0.554408 0.265272 0
M  V30 14 H -5.15757 0.665192 0.705403 0
M  V30 15 H -4.94013 -1.02265 1.25041 0
M  V30 16 H -0.0919758 0.615727 1.6061 0
M  V30 17 H -1.19642 -0.644025 -2.27661 0
M  V30 18 H -4.42419 -1.63444 -1.48527 0
M  V30 19 H -3.97858 -0.344623 -2.68452 0
M  V30 20 H 1.57689 1.51715 0.4795 0
M  V30 21 H 1.74233 -0.196275 1.08619 0
M  V30 22 H 3.37651 0.75941 -1.40231 0
M  V30 23 H 3.9774 1.1699 1.67113 0
M  V30 24 H 5.20582 1.41134 0.249882 0
M  V30 25 H 4.93736 -1.02035 -0.421076 0
M  V30 26 H 3.7718 -1.22884 1.04569 0
M  V30 END ATOM
M  V30 BEGIN BOND
M  V30 1 1 1 2
M  V30 2 2 2 3
M  V30 3 1 3 4
M  V30 4 2 4 5
M  V30 5 1 5 6
M  V30 6 2 6 7
M  V30 7 1 7 8
M  V30 8 1 5 9
M  V30 9 1 9 10
M  V30 10 1 10 11
M  V30 11 1 11 12
M  V30 12 1 12 13
M  V30 13 1 7 2
M  V30 14 1 13 11
M  V30 15 1 1 14
M  V30 16 1 1 15
M  V30 17 1 4 16
M  V30 18 1 6 17
M  V30 19 1 8 18
M  V30 20 1 8 19
M  V30 21 1 10 20
M  V30 22 1 10 21
M  V30 23 1 11 22
M  V30 24 1 12 23
M  V30 25 1 12 24
M  V30 26 1 13 25
M  V30 27 1 13 26
M  V30 END BOND
M  V30 END CTAB
M  END
