
     RDKit          3D

  0  0  0  0  0  0  0  0  0  0999 V3000
M  V30 BEGIN CTAB
M  V30 COUNTS 34 34 0 0 0
M  V30 BEGIN ATOM
M  V30 1 N -2.84993 2.75155 -1.74902 0
M  V30 2 N -2.8629 1.88676 -0.679598 0
M  V30 3 C -1.77003 1.01904 -0.412945 0
M  V30 4 O -0.804835 1.07969 -1.18549 0
M  V30 5 C -1.73467 0.0590464 0.722763 0
M  V30 6 C -2.29021 -1.19503 0.236804 0
M  V30 7 O -1.62075 -2.23084 0.0940108 0
M  V30 8 N -3.66396 -1.27632 -0.103414 0
M  V30 9 N -4.24606 -2.46397 -0.580141 0
M  V30 10 C -0.568976 0.0772902 1.60018 0
M  V30 11 C 0.769992 -0.167496 1.12204 0
M  V30 12 C 1.56814 0.870529 0.652269 0
M  V30 13 C 2.85579 0.647865 0.213096 0
M  V30 14 C 3.38755 -0.615852 0.229111 0
M  V30 15 C 2.62578 -1.65422 0.686627 0
M  V30 16 C 1.34355 -1.40575 1.11974 0
M  V30 17 O 4.69959 -0.831233 -0.220931 0
M  V30 18 C 5.46985 0.252516 -0.689232 0
M  V30 19 H -1.90096 3.12835 -1.98181 0
M  V30 20 H -3.46193 3.58888 -1.62093 0
M  V30 21 H -3.68283 1.86629 -0.0464002 0
M  V30 22 H -2.59862 0.491251 1.41368 0
M  V30 23 H -4.24983 -0.422703 0.0104893 0
M  V30 24 H -4.94733 -2.74354 0.156038 0
M  V30 25 H -3.56725 -3.23776 -0.636794 0
M  V30 26 H -0.773963 -0.638133 2.47552 0
M  V30 27 H -0.617434 1.08106 2.16634 0
M  V30 28 H 1.23017 1.90418 0.615305 0
M  V30 29 H 3.48575 1.46261 -0.15735 0
M  V30 30 H 3.02223 -2.68518 0.713776 0
M  V30 31 H 0.740587 -2.23564 1.51077 0
M  V30 32 H 4.97186 0.779123 -1.5445 0
M  V30 33 H 6.42685 -0.152912 -1.06356 0
M  V30 34 H 5.61476 1.01054 0.112411 0
M  V30 END ATOM
M  V30 BEGIN BOND
M  V30 1 1 1 2
M  V30 2 1 2 3
M  V30 3 2 3 4
M  V30 4 1 3 5
M  V30 5 1 5 6
M  V30 6 2 6 7
M  V30 7 1 6 8
M  V30 8 1 8 9
M  V30 9 1 5 10
M  V30 10 1 10 11
M  V30 11 2 11 12
M  V30 12 1 12 13
M  V30 13 2 13 14
M  V30 14 1 14 15
M  V30 15 2 15 16
M  V30 16 1 14 17
M  V30 17 1 17 18
M  V30 18 1 16 11
M  V30 19 1 1 19
M  V30 20 1 1 20
M  V30 21 1 2 21
M  V30 22 1 5 22
M  V30 23 1 8 23
M  V30 24 1 9 24
M  V30 25 1 9 25
M  V30 26 1 10 26
M  V30 27 1 10 27
M  V30 28 1 12 28
M  V30 29 1 13 29
M  V30 30 1 15 30
M  V30 31 1 16 31
M  V30 32 1 18 32
M  V30 33 1 18 33
M  V30 34 1 18 34
M  V30 END BOND
M  V30 END CTAB
M  END
