
     RDKit          3D

  0  0  0  0  0  0  0  0  0  0999 V3000
M  V30 BEGIN CTAB
M  V30 COUNTS 25 25 0 0 0
M  V30 BEGIN ATOM
M  V30 1 C 0.659212 -1.98581 0.922748 0
M  V30 2 C 0.372234 -0.80741 0.0561622 0
M  V30 3 C -0.856962 -0.058221 0.497689 0
M  V30 4 N -1.07697 0.512026 1.69431 0
M  V30 5 N -2.27468 1.07311 1.69171 0
M  V30 6 C -2.8713 0.879475 0.478067 0
M  V30 7 N -1.95759 0.174829 -0.228727 0
M  V30 8 N -2.16792 -0.241918 -1.54954 0
M  V30 9 N -4.14951 1.32026 0.0703233 0
M  V30 10 C 1.51769 0.196437 0.0524333 0
M  V30 11 S 3.04216 -0.531754 -0.551012 0
M  V30 12 C 4.33351 0.733888 -0.516246 0
M  V30 13 H -0.270595 -2.56311 1.04986 0
M  V30 14 H 1.12658 -1.7083 1.88895 0
M  V30 15 H 1.37149 -2.64232 0.381569 0
M  V30 16 H 0.247 -1.15693 -0.988889 0
M  V30 17 H -1.5843 0.0751243 -2.35426 0
M  V30 18 H -2.94578 -0.905988 -1.76312 0
M  V30 19 H -4.88037 0.633981 -0.173857 0
M  V30 20 H -4.35764 2.32907 0.0149467 0
M  V30 21 H 1.70606 0.544967 1.10965 0
M  V30 22 H 1.25521 1.105 -0.517743 0
M  V30 23 H 4.25201 1.32686 -1.46969 0
M  V30 24 H 5.32939 0.229651 -0.455871 0
M  V30 25 H 4.18106 1.46708 0.302797 0
M  V30 END ATOM
M  V30 BEGIN BOND
M  V30 1 1 1 2
M  V30 2 1 2 3
M  V30 3 2 3 4
M  V30 4 1 4 5
M  V30 5 2 5 6
M  V30 6 1 6 7
M  V30 7 1 7 8
M  V30 8 1 6 9
M  V30 9 1 2 10
M  V30 10 1 10 11
M  V30 11 1 11 12
M  V30 12 1 7 3
M  V30 13 1 1 13
M  V30 14 1 1 14
M  V30 15 1 1 15
M  V30 16 1 2 16
M  V30 17 1 8 17
M  V30 18 1 8 18
M  V30 19 1 9 19
M  V30 20 1 9 20
M  V30 21 1 10 21
M  V30 22 1 10 22
M  V30 23 1 12 23
M  V30 24 1 12 24
M  V30 25 1 12 25
M  V30 END BOND
M  V30 END CTAB
M  END
