
     RDKit          3D

  0  0  0  0  0  0  0  0  0  0999 V3000
M  V30 BEGIN CTAB
M  V30 COUNTS 26 25 0 0 0
M  V30 BEGIN ATOM
M  V30 1 C 0.847973 -2.46662 0.832712 0
M  V30 2 C 0.532243 -1.19182 0.121595 0
M  V30 3 O 1.23106 -0.143398 0.72533 0
M  V30 4 S 2.32494 0.570151 -0.305402 0
M  V30 5 N 2.48804 2.22418 0.167639 0
M  V30 6 O 1.87825 0.506957 -1.73753 0
M  V30 7 O 3.65877 -0.123655 -0.125361 0
M  V30 8 C -0.932711 -0.834351 0.170571 0
M  V30 9 C -1.82485 -1.91569 -0.349264 0
M  V30 10 O -1.08297 0.363027 -0.533704 0
M  V30 11 S -1.63716 1.60637 0.446989 0
M  V30 12 N -1.51494 3.09114 -0.389497 0
M  V30 13 O -3.10885 1.33423 0.704309 0
M  V30 14 O -0.922889 1.62426 1.76337 0
M  V30 15 H 0.381406 -3.34315 0.358728 0
M  V30 16 H 0.602205 -2.39939 1.92589 0
M  V30 17 H 1.94475 -2.61569 0.789578 0
M  V30 18 H 0.912566 -1.26236 -0.913809 0
M  V30 19 H 1.72599 2.79514 -0.239759 0
M  V30 20 H 2.38481 2.25444 1.20818 0
M  V30 21 H -1.2328 -0.61553 1.21572 0
M  V30 22 H -2.80086 -1.42428 -0.631652 0
M  V30 23 H -1.46689 -2.40729 -1.25881 0
M  V30 24 H -2.10874 -2.65025 0.445649 0
M  V30 25 H -0.718448 3.0992 -1.06431 0
M  V30 26 H -1.56091 3.92438 0.21931 0
M  V30 END ATOM
M  V30 BEGIN BOND
M  V30 1 1 1 2
M  V30 2 1 2 3
M  V30 3 1 3 4
M  V30 4 1 4 5
M  V30 5 2 4 6
M  V30 6 2 4 7
M  V30 7 1 2 8
M  V30 8 1 8 9
M  V30 9 1 8 10
M  V30 10 1 10 11
M  V30 11 1 11 12
M  V30 12 2 11 13
M  V30 13 2 11 14
M  V30 14 1 1 15
M  V30 15 1 1 16
M  V30 16 1 1 17
M  V30 17 1 2 18
M  V30 18 1 5 19
M  V30 19 1 5 20
M  V30 20 1 8 21
M  V30 21 1 9 22
M  V30 22 1 9 23
M  V30 23 1 9 24
M  V30 24 1 12 25
M  V30 25 1 12 26
M  V30 END BOND
M  V30 END CTAB
M  END
