
     RDKit          3D

  0  0  0  0  0  0  0  0  0  0999 V3000
M  V30 BEGIN CTAB
M  V30 COUNTS 49 52 0 0 0
M  V30 BEGIN ATOM
M  V30 1 C 7.35686 0.0479268 -1.09854 0
M  V30 2 C 6.66302 1.02646 -0.168507 0
M  V30 3 N 5.45408 0.363285 0.302536 0
M  V30 4 C 5.37014 -0.393764 1.39151 0
M  V30 5 N 6.42697 -0.699361 2.29501 0
M  V30 6 N 4.07807 -0.808497 1.45812 0
M  V30 7 C 3.39275 -0.305576 0.419526 0
M  V30 8 C 4.25478 0.448991 -0.334838 0
M  V30 9 N 3.82274 1.06928 -1.43996 0
M  V30 10 C 2.56502 0.996294 -1.8648 0
M  V30 11 C 1.60878 0.249248 -1.16012 0
M  V30 12 C 2.06614 -0.389727 -0.0197885 0
M  V30 13 C 0.299004 0.160743 -1.72185 0
M  V30 14 O 0.210409 0.492135 -2.98279 0
M  V30 15 N -0.897704 -0.236208 -1.08267 0
M  V30 16 C -2.1195 -0.332083 -1.93589 0
M  V30 17 C -3.30729 0.31877 -1.28656 0
M  V30 18 C -3.53304 -0.479012 -0.00746874 0
M  V30 19 C -2.42485 -0.114115 0.901451 0
M  V30 20 C -1.09226 -0.508407 0.307939 0
M  V30 21 C -4.87436 -0.302669 0.539571 0
M  V30 22 C -5.30489 0.94978 0.977815 0
M  V30 23 C -6.57608 1.09003 1.49035 0
M  V30 24 N -7.37716 0.00296016 1.55517 0
M  V30 25 C -6.97237 -1.20892 1.13559 0
M  V30 26 N -5.73165 -1.3093 0.643355 0
M  V30 27 N -7.88319 -2.28375 1.24467 0
M  V30 28 H 7.91364 0.578231 -1.8802 0
M  V30 29 H 7.99692 -0.642612 -0.527989 0
M  V30 30 H 6.5708 -0.548117 -1.60415 0
M  V30 31 H 6.43079 1.96237 -0.725987 0
M  V30 32 H 7.32595 1.24697 0.699882 0
M  V30 33 H 7.15327 -0.0194854 2.59445 0
M  V30 34 H 6.48967 -1.66382 2.69049 0
M  V30 35 H 2.23377 1.51643 -2.76943 0
M  V30 36 H 1.43378 -1.01668 0.564865 0
M  V30 37 H -2.30488 -1.39736 -2.18063 0
M  V30 38 H -1.85974 0.165901 -2.87895 0
M  V30 39 H -4.16826 0.254131 -1.95741 0
M  V30 40 H -3.07701 1.37702 -1.04762 0
M  V30 41 H -3.39938 -1.55289 -0.29361 0
M  V30 42 H -2.53355 -0.71639 1.83142 0
M  V30 43 H -2.4339 0.969112 1.18721 0
M  V30 44 H -0.352938 0.194612 0.838608 0
M  V30 45 H -0.818085 -1.5444 0.595941 0
M  V30 46 H -4.65584 1.80255 0.919146 0
M  V30 47 H -6.98374 2.0233 1.84983 0
M  V30 48 H -8.44413 -2.45182 2.09512 0
M  V30 49 H -7.99155 -2.92706 0.440205 0
M  V30 END ATOM
M  V30 BEGIN BOND
M  V30 1 1 1 2
M  V30 2 1 2 3
M  V30 3 1 3 4
M  V30 4 1 4 5
M  V30 5 2 4 6
M  V30 6 1 6 7
M  V30 7 2 7 8
M  V30 8 1 8 9
M  V30 9 2 9 10
M  V30 10 1 10 11
M  V30 11 2 11 12
M  V30 12 1 11 13
M  V30 13 2 13 14
M  V30 14 1 13 15
M  V30 15 1 15 16
M  V30 16 1 16 17
M  V30 17 1 17 18
M  V30 18 1 18 19
M  V30 19 1 19 20
M  V30 20 1 18 21
M  V30 21 2 21 22
M  V30 22 1 22 23
M  V30 23 2 23 24
M  V30 24 1 24 25
M  V30 25 2 25 26
M  V30 26 1 25 27
M  V30 27 1 8 3
M  V30 28 1 20 15
M  V30 29 1 26 21
M  V30 30 1 12 7
M  V30 31 1 1 28
M  V30 32 1 1 29
M  V30 33 1 1 30
M  V30 34 1 2 31
M  V30 35 1 2 32
M  V30 36 1 5 33
M  V30 37 1 5 34
M  V30 38 1 10 35
M  V30 39 1 12 36
M  V30 40 1 16 37
M  V30 41 1 16 38
M  V30 42 1 17 39
M  V30 43 1 17 40
M  V30 44 1 18 41
M  V30 45 1 19 42
M  V30 46 1 19 43
M  V30 47 1 20 44
M  V30 48 1 20 45
M  V30 49 1 22 46
M  V30 50 1 23 47
M  V30 51 1 27 48
M  V30 52 1 27 49
M  V30 END BOND
M  V30 END CTAB
M  END
