
     RDKit          3D

  0  0  0  0  0  0  0  0  0  0999 V3000
M  V30 BEGIN CTAB
M  V30 COUNTS 60 59 0 0 0
M  V30 BEGIN ATOM
M  V30 1 N -8.61097 0.0287905 0.987853 0
M  V30 2 C -7.8773 -0.716633 -0.0359368 0
M  V30 3 C -7.36107 0.187375 -1.10824 0
M  V30 4 C -6.42604 1.24311 -0.600222 0
M  V30 5 C -5.22514 0.568682 0.0521203 0
M  V30 6 C -4.26273 1.60357 0.569635 0
M  V30 7 C -3.10185 0.947245 1.21941 0
M  V30 8 C -2.37328 0.070483 0.232348 0
M  V30 9 C -1.191 -0.567877 0.911819 0
M  V30 10 C -0.389035 -1.4597 0.03648 0
M  V30 11 C 0.204794 -0.801162 -1.16303 0
M  V30 12 C 1.13852 0.321739 -0.872351 0
M  V30 13 C 2.34259 -0.0553939 -0.0475084 0
M  V30 14 C 3.1937 -1.09348 -0.691163 0
M  V30 15 C 4.37508 -1.47662 0.140778 0
M  V30 16 C 5.24818 -0.280151 0.387788 0
M  V30 17 C 6.46971 -0.636356 1.21579 0
M  V30 18 C 7.27853 0.611242 1.41818 0
M  V30 19 C 7.75302 1.23484 0.146994 0
M  V30 20 N 8.59053 0.312334 -0.601321 0
M  V30 21 H -7.9527 0.164758 1.78472 0
M  V30 22 H -9.47069 -0.472894 1.24019 0
M  V30 23 H -7.12165 -1.34668 0.437026 0
M  V30 24 H -8.62825 -1.39664 -0.538819 0
M  V30 25 H -8.2322 0.70543 -1.5604 0
M  V30 26 H -6.83123 -0.436283 -1.85136 0
M  V30 27 H -6.05516 1.8762 -1.42672 0
M  V30 28 H -6.89319 1.87353 0.179409 0
M  V30 29 H -4.75441 -0.0450578 -0.750013 0
M  V30 30 H -5.58883 -0.0917143 0.84016 0
M  V30 31 H -4.76429 2.33824 1.23449 0
M  V30 32 H -3.86861 2.19906 -0.305609 0
M  V30 33 H -3.51316 0.303841 2.05188 0
M  V30 34 H -2.40499 1.67937 1.70982 0
M  V30 35 H -2.15242 0.548199 -0.715756 0
M  V30 36 H -3.07253 -0.789675 0.00598727 0
M  V30 37 H -1.52912 -1.15905 1.78828 0
M  V30 38 H -0.549648 0.246768 1.33263 0
M  V30 39 H -1.07574 -2.26433 -0.344372 0
M  V30 40 H 0.351393 -1.98915 0.66755 0
M  V30 41 H 0.725058 -1.54325 -1.80239 0
M  V30 42 H -0.62706 -0.392634 -1.77387 0
M  V30 43 H 1.52048 0.734956 -1.8281 0
M  V30 44 H 0.625648 1.15365 -0.348007 0
M  V30 45 H 2.10838 -0.240838 1.01774 0
M  V30 46 H 2.95417 0.900911 -0.0378743 0
M  V30 47 H 2.65036 -2.02915 -0.937051 0
M  V30 48 H 3.51396 -0.673548 -1.68509 0
M  V30 49 H 4.97468 -2.30363 -0.327828 0
M  V30 50 H 4.0498 -1.90755 1.12184 0
M  V30 51 H 5.50346 0.160953 -0.580895 0
M  V30 52 H 4.62498 0.477134 0.941957 0
M  V30 53 H 7.08483 -1.31838 0.572203 0
M  V30 54 H 6.20607 -1.14776 2.13982 0
M  V30 55 H 8.14682 0.428826 2.10642 0
M  V30 56 H 6.67135 1.39652 1.95614 0
M  V30 57 H 6.90474 1.60888 -0.42942 0
M  V30 58 H 8.36537 2.1478 0.39033 0
M  V30 59 H 9.11416 -0.260549 0.0931395 0
M  V30 60 H 9.21392 0.821687 -1.26432 0
M  V30 END ATOM
M  V30 BEGIN BOND
M  V30 1 1 1 2
M  V30 2 1 2 3
M  V30 3 1 3 4
M  V30 4 1 4 5
M  V30 5 1 5 6
M  V30 6 1 6 7
M  V30 7 1 7 8
M  V30 8 1 8 9
M  V30 9 1 9 10
M  V30 10 1 10 11
M  V30 11 1 11 12
M  V30 12 1 12 13
M  V30 13 1 13 14
M  V30 14 1 14 15
M  V30 15 1 15 16
M  V30 16 1 16 17
M  V30 17 1 17 18
M  V30 18 1 18 19
M  V30 19 1 19 20
M  V30 20 1 1 21
M  V30 21 1 1 22
M  V30 22 1 2 23
M  V30 23 1 2 24
M  V30 24 1 3 25
M  V30 25 1 3 26
M  V30 26 1 4 27
M  V30 27 1 4 28
M  V30 28 1 5 29
M  V30 29 1 5 30
M  V30 30 1 6 31
M  V30 31 1 6 32
M  V30 32 1 7 33
M  V30 33 1 7 34
M  V30 34 1 8 35
M  V30 35 1 8 36
M  V30 36 1 9 37
M  V30 37 1 9 38
M  V30 38 1 10 39
M  V30 39 1 10 40
M  V30 40 1 11 41
M  V30 41 1 11 42
M  V30 42 1 12 43
M  V30 43 1 12 44
M  V30 44 1 13 45
M  V30 45 1 13 46
M  V30 46 1 14 47
M  V30 47 1 14 48
M  V30 48 1 15 49
M  V30 49 1 15 50
M  V30 50 1 16 51
M  V30 51 1 16 52
M  V30 52 1 17 53
M  V30 53 1 17 54
M  V30 54 1 18 55
M  V30 55 1 18 56
M  V30 56 1 19 57
M  V30 57 1 19 58
M  V30 58 1 20 59
M  V30 59 1 20 60
M  V30 END BOND
M  V30 END CTAB
M  END
