
     RDKit          3D

  0  0  0  0  0  0  0  0  0  0999 V3000
M  V30 BEGIN CTAB
M  V30 COUNTS 57 60 0 0 0
M  V30 BEGIN ATOM
M  V30 1 N 6.36576 2.92189 0.872664 0
M  V30 2 C 7.41792 2.00952 0.507764 0 CFG=1
M  V30 3 C 6.95032 1.21579 -0.68167 0
M  V30 4 C 5.713 0.434628 -0.387161 0
M  V30 5 C 5.80042 -0.845572 0.098678 0
M  V30 6 C 4.67748 -1.56243 0.369108 0
M  V30 7 C 3.39242 -1.07261 0.181525 0
M  V30 8 C 3.32028 0.216858 -0.30777 0
M  V30 9 C 4.46162 0.963112 -0.589352 0
M  V30 10 C 2.21897 -1.88165 0.486334 0
M  V30 11 N 2.42178 -3.12243 0.955514 0
M  V30 12 C 1.4033 -3.96227 1.27193 0
M  V30 13 N 1.71695 -5.24982 1.75856 0
M  V30 14 N 0.17711 -3.499 1.09568 0
M  V30 15 C -0.144074 -2.27284 0.631929 0
M  V30 16 C -1.52563 -1.84798 0.469956 0
M  V30 17 C -1.94804 -0.702805 0.037218 0
M  V30 18 C -3.33272 -0.296158 -0.117826 0
M  V30 19 C -4.37079 -1.13618 0.198562 0
M  V30 20 C -5.68264 -0.690272 0.0288378 0
M  V30 21 C -5.97184 0.554428 -0.441706 0
M  V30 22 C -4.93096 1.40286 -0.761278 0
M  V30 23 C -3.62444 0.959229 -0.592427 0
M  V30 24 C -7.36034 0.999154 -0.610737 0
M  V30 25 C -7.67222 2.33155 -0.452764 0
M  V30 26 C -8.94954 2.83094 -0.593931 0
M  V30 27 C -9.95366 1.94018 -0.908947 0
M  V30 28 C -9.68007 0.589668 -1.07641 0
M  V30 29 C -8.38571 0.132069 -0.92566 0
M  V30 30 C 0.920677 -1.45355 0.323273 0
M  V30 31 C 8.64526 2.72545 0.154538 0
M  V30 32 O 9.77899 2.03323 -0.22359 0
M  V30 33 O 8.68212 3.97667 0.191044 0
M  V30 34 H 5.61423 2.43969 1.32559 0
M  V30 35 H 6.73271 3.71461 1.38596 0
M  V30 36 H 7.56877 1.31255 1.34658 0
M  V30 37 H 6.81783 1.82918 -1.59169 0
M  V30 38 H 7.7411 0.45905 -0.941347 0
M  V30 39 H 6.76217 -1.30722 0.275183 0
M  V30 40 H 4.74783 -2.57749 0.754152 0
M  V30 41 H 2.38368 0.680637 -0.4849 0
M  V30 42 H 4.40696 1.97888 -0.974776 0
M  V30 43 H 1.33131 -5.56692 2.65967 0
M  V30 44 H 2.33192 -5.86607 1.20681 0
M  V30 45 H -2.28697 -2.58639 0.747803 0
M  V30 46 H -1.17444 0.026057 -0.237009 0
M  V30 47 H -4.23781 -2.13276 0.575229 0
M  V30 48 H -6.49139 -1.35845 0.280544 0
M  V30 49 H -5.15952 2.40136 -1.1388 0
M  V30 50 H -2.82082 1.6564 -0.855019 0
M  V30 51 H -6.87445 3.0156 -0.206146 0
M  V30 52 H -9.19314 3.87609 -0.46976 0
M  V30 53 H -10.9571 2.31502 -1.02258 0
M  V30 54 H -10.5123 -0.0622413 -1.3238 0
M  V30 55 H -8.18148 -0.911889 -1.05638 0
M  V30 56 H 0.757922 -0.441626 -0.0594198 0
M  V30 57 H 10.1612 2.01546 -1.15779 0
M  V30 END ATOM
M  V30 BEGIN BOND
M  V30 1 1 1 2
M  V30 2 1 2 3
M  V30 3 1 3 4
M  V30 4 2 4 5
M  V30 5 1 5 6
M  V30 6 2 6 7
M  V30 7 1 7 8
M  V30 8 2 8 9
M  V30 9 1 7 10
M  V30 10 2 10 11
M  V30 11 1 11 12
M  V30 12 1 12 13
M  V30 13 2 12 14
M  V30 14 1 14 15
M  V30 15 1 15 16
M  V30 16 2 16 17
M  V30 17 1 17 18
M  V30 18 2 18 19
M  V30 19 1 19 20
M  V30 20 2 20 21
M  V30 21 1 21 22
M  V30 22 2 22 23
M  V30 23 1 21 24
M  V30 24 2 24 25
M  V30 25 1 25 26
M  V30 26 2 26 27
M  V30 27 1 27 28
M  V30 28 2 28 29
M  V30 29 2 15 30
M  V30 30 1 2 31
M  V30 31 1 31 32
M  V30 32 2 31 33
M  V30 33 1 9 4
M  V30 34 1 30 10
M  V30 35 1 23 18
M  V30 36 1 29 24
M  V30 37 1 1 34
M  V30 38 1 1 35
M  V30 39 1 2 36 CFG=1
M  V30 40 1 3 37
M  V30 41 1 3 38
M  V30 42 1 5 39
M  V30 43 1 6 40
M  V30 44 1 8 41
M  V30 45 1 9 42
M  V30 46 1 13 43
M  V30 47 1 13 44
M  V30 48 1 16 45
M  V30 49 1 17 46
M  V30 50 1 19 47
M  V30 51 1 20 48
M  V30 52 1 22 49
M  V30 53 1 23 50
M  V30 54 1 25 51
M  V30 55 1 26 52
M  V30 56 1 27 53
M  V30 57 1 28 54
M  V30 58 1 29 55
M  V30 59 1 30 56
M  V30 60 1 32 57
M  V30 END BOND
M  V30 END CTAB
M  END
