
     RDKit          3D

  0  0  0  0  0  0  0  0  0  0999 V3000
M  V30 BEGIN CTAB
M  V30 COUNTS 40 42 0 0 0
M  V30 BEGIN ATOM
M  V30 1 C -1.21641 -1.31265 0.144487 0
M  V30 2 C -1.64927 -0.00914274 -0.394011 0
M  V30 3 C -0.715519 0.804827 -1.10239 0
M  V30 4 N 0.597826 0.413119 -0.932094 0
M  V30 5 C 1.86579 0.0350282 -0.767788 0
M  V30 6 O 2.84119 0.451143 -1.50177 0
M  V30 7 C 2.29041 -0.931036 0.328005 0
M  V30 8 C 3.77032 -0.860528 0.400257 0
M  V30 9 C 4.615 -1.66589 -0.288752 0
M  V30 10 C 5.9792 -1.4942 -0.17268 0
M  V30 11 C 6.49447 -0.511693 0.636415 0
M  V30 12 Cl 8.23635 -0.263232 0.788284 0
M  V30 13 C 5.66725 0.334468 1.36035 0
M  V30 14 C 4.33223 0.135202 1.22294 0
M  V30 15 C -1.18389 1.96532 -1.73457 0
M  V30 16 C -2.51739 2.27727 -1.64504 0
M  V30 17 C -3.41792 1.50153 -0.95999 0
M  V30 18 N -4.70951 1.84675 -0.864556 0
M  V30 19 C -5.64601 1.15443 -0.184752 0
M  V30 20 N -6.99933 1.58208 -0.132875 0
M  V30 21 N -5.21609 0.0456401 0.428753 0
M  V30 22 C -3.9208 -0.358034 0.368636 0
M  V30 23 N -3.60035 -1.48576 1.13121 0
M  V30 24 C -2.96594 0.336791 -0.322791 0
M  V30 25 H -1.84901 -2.19384 -0.143618 0
M  V30 26 H -0.723314 -1.33786 1.09714 0
M  V30 27 H -0.350583 -1.58728 -0.57524 0
M  V30 28 H 0.913757 1.03205 -2.09681 0
M  V30 29 H 1.84726 -0.631326 1.29086 0
M  V30 30 H 1.90995 -1.91017 0.0445987 0
M  V30 31 H 4.21778 -2.46615 -0.94432 0
M  V30 32 H 6.65744 -2.14653 -0.734333 0
M  V30 33 H 6.05117 1.12086 2.01203 0
M  V30 34 H 3.63421 0.76185 1.76295 0
M  V30 35 H -0.483317 2.59778 -2.26739 0
M  V30 36 H -2.85236 3.17762 -2.14841 0
M  V30 37 H -7.59067 1.47723 -0.974396 0
M  V30 38 H -7.3812 1.98703 0.720403 0
M  V30 39 H -3.01739 -1.41912 2.01608 0
M  V30 40 H -3.91532 -2.45355 0.906932 0
M  V30 END ATOM
M  V30 BEGIN BOND
M  V30 1 1 1 2
M  V30 2 2 2 3
M  V30 3 1 3 4
M  V30 4 1 4 5
M  V30 5 2 5 6
M  V30 6 1 5 7
M  V30 7 1 7 8
M  V30 8 2 8 9
M  V30 9 1 9 10
M  V30 10 2 10 11
M  V30 11 1 11 12
M  V30 12 1 11 13
M  V30 13 2 13 14
M  V30 14 1 3 15
M  V30 15 2 15 16
M  V30 16 1 16 17
M  V30 17 2 17 18
M  V30 18 1 18 19
M  V30 19 1 19 20
M  V30 20 2 19 21
M  V30 21 1 21 22
M  V30 22 1 22 23
M  V30 23 2 22 24
M  V30 24 1 24 2
M  V30 25 1 14 8
M  V30 26 1 24 17
M  V30 27 1 1 25
M  V30 28 1 1 26
M  V30 29 1 1 27
M  V30 30 1 4 28
M  V30 31 1 7 29
M  V30 32 1 7 30
M  V30 33 1 9 31
M  V30 34 1 10 32
M  V30 35 1 13 33
M  V30 36 1 14 34
M  V30 37 1 15 35
M  V30 38 1 16 36
M  V30 39 1 20 37
M  V30 40 1 20 38
M  V30 41 1 23 39
M  V30 42 1 23 40
M  V30 END BOND
M  V30 END CTAB
M  END
