
     RDKit          3D

  0  0  0  0  0  0  0  0  0  0999 V3000
M  V30 BEGIN CTAB
M  V30 COUNTS 44 46 0 0 0
M  V30 BEGIN ATOM
M  V30 1 N -2.15328 -2.90809 -1.05998 0
M  V30 2 C -1.44562 -1.8011 -0.513501 0 CFG=2
M  V30 3 C -0.169049 -2.30372 0.158391 0
M  V30 4 N -0.160587 -1.81975 1.49035 0
M  V30 5 C -1.22516 -0.893272 1.68536 0
M  V30 6 C -2.23236 -1.14797 0.554254 0 CFG=1
M  V30 7 C -2.95311 0.0568172 0.217036 0
M  V30 8 C -4.30332 0.176683 0.414539 0
M  V30 9 C -5.00123 1.33773 0.0899877 0
M  V30 10 C -4.30586 2.39696 -0.446843 0
M  V30 11 C -2.94844 2.31358 -0.659821 0
M  V30 12 C -2.28016 1.13201 -0.32196 0
M  V30 13 S 1.36171 -1.29614 2.03927 0
M  V30 14 O 1.37957 -0.941562 3.48649 0
M  V30 15 O 2.32755 -2.46188 1.87138 0
M  V30 16 C 1.9729 0.0246787 1.10196 0
M  V30 17 C 1.64141 1.30633 1.49193 0
M  V30 18 C 2.13207 2.35079 0.742973 0
M  V30 19 C 2.92796 2.09974 -0.358368 0
M  V30 20 C 3.25971 0.817284 -0.748633 0
M  V30 21 C 2.76688 -0.229468 0.00356334 0
M  V30 22 S 4.27529 0.502834 -2.15429 0
M  V30 23 O 4.04579 1.5489 -3.20949 0
M  V30 24 O 3.9064 -0.865428 -2.70949 0
M  V30 25 N 5.90502 0.462528 -1.62829 0
M  V30 26 H -2.98716 -3.09079 -0.573607 0
M  V30 27 H -1.67931 -3.62275 -1.50449 0
M  V30 28 H -1.13935 -1.18697 -1.34885 0
M  V30 29 H 0.73554 -1.93139 -0.36281 0
M  V30 30 H -0.110655 -3.41655 0.081655 0
M  V30 31 H -1.69286 -0.901717 2.66893 0
M  V30 32 H -0.818072 0.147609 1.52985 0
M  V30 33 H -2.94249 -1.89529 0.972023 0
M  V30 34 H -4.8236 -0.647556 0.828585 0
M  V30 35 H -6.07514 1.37499 0.269585 0
M  V30 36 H -4.88834 3.27701 -0.683166 0
M  V30 37 H -2.44837 3.16403 -1.0804 0
M  V30 38 H -1.21702 1.12532 -0.511434 0
M  V30 39 H 1.01935 1.45198 2.3557 0
M  V30 40 H 1.87589 3.35881 1.04329 0
M  V30 41 H 3.30844 2.91825 -0.93967 0
M  V30 42 H 3.03092 -1.25218 -0.305308 0
M  V30 43 H 6.17362 1.42392 -1.3297 0
M  V30 44 H 5.95454 -0.155203 -0.7911 0
M  V30 END ATOM
M  V30 BEGIN BOND
M  V30 1 1 1 2
M  V30 2 1 2 3
M  V30 3 1 3 4
M  V30 4 1 4 5
M  V30 5 1 5 6
M  V30 6 1 6 7
M  V30 7 2 7 8
M  V30 8 1 8 9
M  V30 9 2 9 10
M  V30 10 1 10 11
M  V30 11 2 11 12
M  V30 12 1 4 13
M  V30 13 2 13 14
M  V30 14 2 13 15
M  V30 15 1 13 16
M  V30 16 2 16 17
M  V30 17 1 17 18
M  V30 18 2 18 19
M  V30 19 1 19 20
M  V30 20 2 20 21
M  V30 21 1 20 22
M  V30 22 2 22 23
M  V30 23 2 22 24
M  V30 24 1 22 25
M  V30 25 1 6 2
M  V30 26 1 12 7
M  V30 27 1 21 16
M  V30 28 1 1 26
M  V30 29 1 1 27
M  V30 30 1 2 28 CFG=3
M  V30 31 1 3 29
M  V30 32 1 3 30
M  V30 33 1 5 31
M  V30 34 1 5 32
M  V30 35 1 6 33 CFG=1
M  V30 36 1 8 34
M  V30 37 1 9 35
M  V30 38 1 10 36
M  V30 39 1 11 37
M  V30 40 1 12 38
M  V30 41 1 17 39
M  V30 42 1 18 40
M  V30 43 1 19 41
M  V30 44 1 21 42
M  V30 45 1 25 43
M  V30 46 1 25 44
M  V30 END BOND
M  V30 END CTAB
M  END
