
     RDKit          3D

  0  0  0  0  0  0  0  0  0  0999 V3000
M  V30 BEGIN CTAB
M  V30 COUNTS 31 31 0 0 0
M  V30 BEGIN ATOM
M  V30 1 O -3.68034 1.91482 0.0302794 0
M  V30 2 C -3.4357 0.581632 -0.225452 0
M  V30 3 C -2.02471 0.170113 0.185549 0
M  V30 4 C -1.89216 -1.28183 -0.142069 0
M  V30 5 C -0.625188 -1.90328 0.356293 0
M  V30 6 C 0.604666 -1.439 -0.371834 0
M  V30 7 N 0.975305 -0.0810413 -0.0400355 0
M  V30 8 C 0.217159 1.11411 0.231248 0
M  V30 9 C -1.06576 1.04058 -0.585289 0
M  V30 10 C 2.39327 0.131304 0.0378579 0
M  V30 11 N 2.8884 1.2407 -0.366798 0
M  V30 12 N 4.25723 1.43575 -0.287444 0
M  V30 13 N 3.22414 -0.890454 0.561636 0
M  V30 14 H -3.4652 2.42868 -0.786565 0
M  V30 15 H -4.14241 -0.0622107 0.351114 0
M  V30 16 H -3.53252 0.302971 -1.29328 0
M  V30 17 H -1.88251 0.364829 1.26927 0
M  V30 18 H -1.93219 -1.4085 -1.24111 0
M  V30 19 H -2.73938 -1.81407 0.337771 0
M  V30 20 H -0.459528 -1.78916 1.43181 0
M  V30 21 H -0.707991 -3.00637 0.168044 0
M  V30 22 H 1.43705 -2.12087 -0.0609802 0
M  V30 23 H 0.472223 -1.47417 -1.47407 0
M  V30 24 H 0.00890844 1.23026 1.30863 0
M  V30 25 H 0.743834 2.03262 -0.114851 0
M  V30 26 H -1.43043 2.06881 -0.723206 0
M  V30 27 H -0.822653 0.633427 -1.58714 0
M  V30 28 H 4.65777 2.25019 -0.798797 0
M  V30 29 H 4.91891 0.830407 0.244714 0
M  V30 30 H 3.47086 -1.71444 -0.0278319 0
M  V30 31 H 3.56894 -0.785825 1.53551 0
M  V30 END ATOM
M  V30 BEGIN BOND
M  V30 1 1 1 2
M  V30 2 1 2 3
M  V30 3 1 3 4
M  V30 4 1 4 5
M  V30 5 1 5 6
M  V30 6 1 6 7
M  V30 7 1 7 8
M  V30 8 1 8 9
M  V30 9 1 7 10
M  V30 10 2 10 11 CFG=2
M  V30 11 1 11 12
M  V30 12 1 10 13
M  V30 13 1 9 3
M  V30 14 1 1 14
M  V30 15 1 2 15
M  V30 16 1 2 16
M  V30 17 1 3 17
M  V30 18 1 4 18
M  V30 19 1 4 19
M  V30 20 1 5 20
M  V30 21 1 5 21
M  V30 22 1 6 22
M  V30 23 1 6 23
M  V30 24 1 8 24
M  V30 25 1 8 25
M  V30 26 1 9 26
M  V30 27 1 9 27
M  V30 28 1 12 28
M  V30 29 1 12 29
M  V30 30 1 13 30
M  V30 31 1 13 31
M  V30 END BOND
M  V30 END CTAB
M  END
