
     RDKit          3D

  0  0  0  0  0  0  0  0  0  0999 V3000
M  V30 BEGIN CTAB
M  V30 COUNTS 64 68 0 0 0
M  V30 BEGIN ATOM
M  V30 1 N 7.01017 2.05507 2.00979 0
M  V30 2 C 6.70441 1.14508 0.979795 0
M  V30 3 N 7.71241 0.722994 0.167766 0
M  V30 4 C 7.4834 -0.157829 -0.848984 0
M  V30 5 N 8.51545 -0.611217 -1.70648 0
M  V30 6 C 6.20327 -0.608225 -1.03089 0
M  V30 7 C 5.17285 -0.188859 -0.21564 0
M  V30 8 N 5.46585 0.667343 0.752219 0
M  V30 9 N 4.03683 -0.757826 -0.585388 0
M  V30 10 C 4.35727 -1.54383 -1.64526 0
M  V30 11 N 5.65041 -1.44189 -1.89562 0
M  V30 12 C 2.70236 -0.691479 -0.114961 0 CFG=2
M  V30 13 C 1.75659 -0.135786 -1.19103 0
M  V30 14 O 0.515693 -0.590582 -0.91278 0
M  V30 15 C 0.0231997 -0.506785 0.340427 0
M  V30 16 C 0.945034 -0.420103 1.48614 0
M  V30 17 C 2.38405 -0.00162209 1.12575 0 CFG=2
M  V30 18 C 2.37609 1.49867 1.09761 0
M  V30 19 O 3.11975 -0.455364 2.24746 0
M  V30 20 C -0.965008 0.666067 0.381229 0
M  V30 21 C -2.2123 0.290919 -0.434411 0
M  V30 22 N -2.92164 -0.668594 0.369163 0
M  V30 23 C -2.11874 -1.45644 1.27741 0
M  V30 24 C -0.839641 -1.76621 0.532208 0
M  V30 25 C -4.30843 -0.870374 0.314556 0
M  V30 26 O -4.79936 -1.77108 1.07984 0
M  V30 27 C -5.2378 -0.111169 -0.566232 0 CFG=1
M  V30 28 C -6.61105 -0.755807 -0.480452 0
M  V30 29 C -7.55607 0.0985552 -1.30323 0
M  V30 30 C -7.50612 1.52606 -0.764977 0
M  V30 31 N -6.63183 1.6258 0.367484 0
M  V30 32 C -5.29255 1.31393 -0.0365578 0
M  V30 33 H 6.67607 3.02939 1.95553 0
M  V30 34 H 7.56896 1.74754 2.81969 0
M  V30 35 H 9.36252 -0.0408159 -1.87408 0
M  V30 36 H 8.40256 -1.54679 -2.17328 0
M  V30 37 H 3.69961 -2.1823 -2.23945 0
M  V30 38 H 2.34886 -1.76451 0.00169484 0
M  V30 39 H 2.09592 -0.602287 -2.15303 0
M  V30 40 H 1.84653 0.938479 -1.31875 0
M  V30 41 H 0.574588 0.334944 2.21076 0
M  V30 42 H 0.966582 -1.38327 2.07845 0
M  V30 43 H 2.76333 1.95378 0.190703 0
M  V30 44 H 2.96594 1.90022 1.97401 0
M  V30 45 H 1.35502 1.94522 1.2618 0
M  V30 46 H 2.81333 -1.37957 2.41414 0
M  V30 47 H -0.513133 1.51134 -0.170808 0
M  V30 48 H -1.23117 0.936891 1.42257 0
M  V30 49 H -2.76474 1.17293 -0.734331 0
M  V30 50 H -1.80023 -0.232582 -1.34833 0
M  V30 51 H -2.57309 -2.42526 1.54321 0
M  V30 52 H -1.8518 -0.856884 2.17357 0
M  V30 53 H -1.1297 -2.21187 -0.429849 0
M  V30 54 H -0.212647 -2.49025 1.06821 0
M  V30 55 H -4.91838 -0.0917468 -1.60709 0
M  V30 56 H -6.5131 -1.76411 -0.917398 0
M  V30 57 H -6.98084 -0.855978 0.541397 0
M  V30 58 H -8.56911 -0.350648 -1.17403 0
M  V30 59 H -7.32444 0.054492 -2.37841 0
M  V30 60 H -7.11478 2.15712 -1.57472 0
M  V30 61 H -8.54733 1.7974 -0.492255 0
M  V30 62 H -6.95154 1.07886 1.17917 0
M  V30 63 H -4.57727 1.4673 0.81118 0
M  V30 64 H -5.00107 2.05354 -0.818011 0
M  V30 END ATOM
M  V30 BEGIN BOND
M  V30 1 1 1 2
M  V30 2 2 2 3
M  V30 3 1 3 4
M  V30 4 1 4 5
M  V30 5 2 4 6
M  V30 6 1 6 7
M  V30 7 2 7 8
M  V30 8 1 7 9
M  V30 9 1 9 10
M  V30 10 2 10 11
M  V30 11 1 9 12
M  V30 12 1 12 13
M  V30 13 1 13 14
M  V30 14 1 14 15
M  V30 15 1 15 16
M  V30 16 1 16 17
M  V30 17 1 17 18
M  V30 18 1 17 19 CFG=1
M  V30 19 1 15 20
M  V30 20 1 20 21
M  V30 21 1 21 22
M  V30 22 1 22 23
M  V30 23 1 23 24
M  V30 24 1 22 25
M  V30 25 2 25 26
M  V30 26 1 25 27
M  V30 27 1 27 28
M  V30 28 1 28 29
M  V30 29 1 29 30
M  V30 30 1 30 31
M  V30 31 1 31 32
M  V30 32 1 8 2
M  V30 33 1 17 12
M  V30 34 1 32 27
M  V30 35 1 11 6
M  V30 36 1 24 15
M  V30 37 1 1 33
M  V30 38 1 1 34
M  V30 39 1 5 35
M  V30 40 1 5 36
M  V30 41 1 10 37
M  V30 42 1 12 38 CFG=1
M  V30 43 1 13 39
M  V30 44 1 13 40
M  V30 45 1 16 41
M  V30 46 1 16 42
M  V30 47 1 18 43
M  V30 48 1 18 44
M  V30 49 1 18 45
M  V30 50 1 19 46
M  V30 51 1 20 47
M  V30 52 1 20 48
M  V30 53 1 21 49
M  V30 54 1 21 50
M  V30 55 1 23 51
M  V30 56 1 23 52
M  V30 57 1 24 53
M  V30 58 1 24 54
M  V30 59 1 27 55 CFG=3
M  V30 60 1 28 56
M  V30 61 1 28 57
M  V30 62 1 29 58
M  V30 63 1 29 59
M  V30 64 1 30 60
M  V30 65 1 30 61
M  V30 66 1 31 62
M  V30 67 1 32 63
M  V30 68 1 32 64
M  V30 END BOND
M  V30 END CTAB
M  END
