
     RDKit          3D

  0  0  0  0  0  0  0  0  0  0999 V3000
M  V30 BEGIN CTAB
M  V30 COUNTS 43 42 0 0 0
M  V30 BEGIN ATOM
M  V30 1 C -3.51967 1.51986 2.14772 0
M  V30 2 C -3.03392 0.168854 2.62852 0
M  V30 3 C -2.1043 -0.426293 1.59622 0
M  V30 4 C -2.86539 -0.588136 0.277375 0
M  V30 5 C -1.94281 -1.18305 -0.761316 0
M  V30 6 N -0.820214 -0.325085 -0.966634 0
M  V30 7 C 0.494236 -0.758512 -0.688192 0
M  V30 8 O 0.6852 -1.92714 -0.248762 0
M  V30 9 C 1.69986 0.0737243 -0.876563 0 CFG=2
M  V30 10 C 2.42317 0.134633 0.451818 0
M  V30 11 C 3.65568 0.982218 0.270014 0
M  V30 12 C 4.53924 0.357522 -0.779233 0
M  V30 13 C 4.42029 1.0785 1.58095 0
M  V30 14 N 1.40213 1.39143 -1.37997 0
M  V30 15 C -2.75644 -1.41067 -2.01269 0
M  V30 16 N -1.98409 -1.98023 -3.0884 0
M  V30 17 H -4.51059 1.44006 1.65586 0
M  V30 18 H -3.58392 2.2361 2.97616 0
M  V30 19 H -2.8197 1.94321 1.39022 0
M  V30 20 H -2.46182 0.275598 3.5673 0
M  V30 21 H -3.91419 -0.472778 2.76922 0
M  V30 22 H -1.2587 0.270268 1.43827 0
M  V30 23 H -1.77544 -1.40159 1.95422 0
M  V30 24 H -3.20784 0.382618 -0.101145 0
M  V30 25 H -3.75617 -1.21627 0.430513 0
M  V30 26 H -1.63456 -2.18067 -0.372844 0
M  V30 27 H -0.980486 0.636175 -1.32832 0
M  V30 28 H 2.36238 -0.453676 -1.59304 0
M  V30 29 H 1.76629 0.625537 1.20738 0
M  V30 30 H 2.62657 -0.874478 0.811023 0
M  V30 31 H 3.34481 1.97709 -0.0578642 0
M  V30 32 H 4.28119 -0.701007 -0.925431 0
M  V30 33 H 5.60883 0.450465 -0.447831 0
M  V30 34 H 4.43491 0.924508 -1.73788 0
M  V30 35 H 3.8044 1.59082 2.33905 0
M  V30 36 H 5.3193 1.70905 1.39128 0
M  V30 37 H 4.72013 0.0718128 1.92586 0
M  V30 38 H 1.05104 1.34403 -2.34421 0
M  V30 39 H 0.886738 1.98588 -0.728122 0
M  V30 40 H -3.30222 -0.497671 -2.31059 0
M  V30 41 H -3.53685 -2.16906 -1.74093 0
M  V30 42 H -2.59579 -2.49538 -3.75492 0
M  V30 43 H -1.1613 -2.50827 -2.76405 0
M  V30 END ATOM
M  V30 BEGIN BOND
M  V30 1 1 1 2
M  V30 2 1 2 3
M  V30 3 1 3 4
M  V30 4 1 4 5
M  V30 5 1 5 6
M  V30 6 1 6 7
M  V30 7 2 7 8
M  V30 8 1 7 9
M  V30 9 1 9 10
M  V30 10 1 10 11
M  V30 11 1 11 12
M  V30 12 1 11 13
M  V30 13 1 9 14
M  V30 14 1 5 15
M  V30 15 1 15 16
M  V30 16 1 1 17
M  V30 17 1 1 18
M  V30 18 1 1 19
M  V30 19 1 2 20
M  V30 20 1 2 21
M  V30 21 1 3 22
M  V30 22 1 3 23
M  V30 23 1 4 24
M  V30 24 1 4 25
M  V30 25 1 5 26
M  V30 26 1 6 27
M  V30 27 1 9 28 CFG=3
M  V30 28 1 10 29
M  V30 29 1 10 30
M  V30 30 1 11 31
M  V30 31 1 12 32
M  V30 32 1 12 33
M  V30 33 1 12 34
M  V30 34 1 13 35
M  V30 35 1 13 36
M  V30 36 1 13 37
M  V30 37 1 14 38
M  V30 38 1 14 39
M  V30 39 1 15 40
M  V30 40 1 15 41
M  V30 41 1 16 42
M  V30 42 1 16 43
M  V30 END BOND
M  V30 END CTAB
M  END
