
     RDKit          3D

  0  0  0  0  0  0  0  0  0  0999 V3000
M  V30 BEGIN CTAB
M  V30 COUNTS 17 17 0 0 0
M  V30 BEGIN ATOM
M  V30 1 N 2.65911 -1.079 0.304396 0
M  V30 2 C 1.42712 -0.39575 0.123633 0
M  V30 3 C 0.211479 -1.03287 0.21677 0
M  V30 4 C -1.00797 -0.415541 0.0500736 0
M  V30 5 N -2.23662 -1.09603 0.151775 0
M  V30 6 C -1.00974 0.936629 -0.229925 0
M  V30 7 C 0.210964 1.6124 -0.330901 0
M  V30 8 C 1.41275 0.957397 -0.156966 0
M  V30 9 I 0.150132 3.67915 -0.760725 0
M  V30 10 O -2.19199 1.6426 -0.413784 0
M  V30 11 H 3.38552 -1.16598 -0.425606 0
M  V30 12 H 2.84028 -1.519 1.23025 0
M  V30 13 H 0.239426 -2.09402 0.437348 0
M  V30 14 H -2.456 -1.87965 -0.477505 0
M  V30 15 H -2.92343 -0.808458 0.861784 0
M  V30 16 H 2.34097 1.51585 -0.242977 0
M  V30 17 H -3.052 1.14228 -0.337635 0
M  V30 END ATOM
M  V30 BEGIN BOND
M  V30 1 1 1 2
M  V30 2 2 2 3
M  V30 3 1 3 4
M  V30 4 1 4 5
M  V30 5 2 4 6
M  V30 6 1 6 7
M  V30 7 2 7 8
M  V30 8 1 7 9
M  V30 9 1 6 10
M  V30 10 1 8 2
M  V30 11 1 1 11
M  V30 12 1 1 12
M  V30 13 1 3 13
M  V30 14 1 5 14
M  V30 15 1 5 15
M  V30 16 1 8 16
M  V30 17 1 10 17
M  V30 END BOND
M  V30 END CTAB
M  END
