
     RDKit          3D

  0  0  0  0  0  0  0  0  0  0999 V3000
M  V30 BEGIN CTAB
M  V30 COUNTS 38 38 0 0 0
M  V30 BEGIN ATOM
M  V30 1 N -3.81679 0.437701 1.81736 0
M  V30 2 C -2.70532 0.977762 1.03667 0
M  V30 3 C -2.70633 0.21953 -0.285974 0
M  V30 4 C -1.64453 0.632464 -1.22533 0
M  V30 5 N -0.266804 0.463443 -0.717279 0
M  V30 6 C 0.453498 -0.698554 -0.949471 0
M  V30 7 O -0.231593 -1.56783 -1.65099 0
M  V30 8 C 1.81702 -1.10305 -0.549844 0
M  V30 9 C 2.27001 -2.38714 -0.896053 0
M  V30 10 S 3.84546 -2.45468 -0.283281 0
M  V30 11 C 3.95279 -0.916553 0.395625 0
M  V30 12 C 2.72252 -0.357684 0.126012 0
M  V30 13 S 5.30014 -0.144162 1.26207 0
M  V30 14 O 4.8549 1.1644 1.83844 0
M  V30 15 O 5.60925 -1.07754 2.42288 0
M  V30 16 N 6.69296 -0.0323836 0.287892 0
M  V30 17 C 0.230299 1.5942 0.0157828 0
M  V30 18 C -4.04345 0.612393 -0.951424 0
M  V30 19 C -2.82471 -1.26546 -0.0331412 0
M  V30 20 H -3.52996 -0.414792 2.3277 0
M  V30 21 H -4.63194 0.267931 1.2118 0
M  V30 22 H -1.77667 0.809735 1.59593 0
M  V30 23 H -2.93844 2.02608 0.809712 0
M  V30 24 H -1.76388 0.0534645 -2.16287 0
M  V30 25 H -1.81571 1.69238 -1.50199 0
M  V30 26 H 1.6929 -3.1545 -1.4468 0
M  V30 27 H 2.53824 0.689234 0.476516 0
M  V30 28 H 7.09288 0.93443 0.411727 0
M  V30 29 H 6.47553 -0.100468 -0.744642 0
M  V30 30 H 0.465294 1.36108 1.06503 0
M  V30 31 H -0.548875 2.41033 0.0958747 0
M  V30 32 H 1.06579 2.1326 -0.518145 0
M  V30 33 H -4.35431 1.62023 -0.63895 0
M  V30 34 H -3.91018 0.657605 -2.07073 0
M  V30 35 H -4.81779 -0.138881 -0.775023 0
M  V30 36 H -3.00046 -1.83818 -0.949897 0
M  V30 37 H -3.75028 -1.46345 0.594927 0
M  V30 38 H -2.00149 -1.64169 0.610788 0
M  V30 END ATOM
M  V30 BEGIN BOND
M  V30 1 1 1 2
M  V30 2 1 2 3
M  V30 3 1 3 4
M  V30 4 1 4 5
M  V30 5 1 5 6
M  V30 6 2 6 7
M  V30 7 1 6 8
M  V30 8 2 8 9
M  V30 9 1 9 10
M  V30 10 1 10 11
M  V30 11 2 11 12
M  V30 12 1 11 13
M  V30 13 2 13 14
M  V30 14 2 13 15
M  V30 15 1 13 16
M  V30 16 1 5 17
M  V30 17 1 3 18
M  V30 18 1 3 19
M  V30 19 1 12 8
M  V30 20 1 1 20
M  V30 21 1 1 21
M  V30 22 1 2 22
M  V30 23 1 2 23
M  V30 24 1 4 24
M  V30 25 1 4 25
M  V30 26 1 9 26
M  V30 27 1 12 27
M  V30 28 1 16 28
M  V30 29 1 16 29
M  V30 30 1 17 30
M  V30 31 1 17 31
M  V30 32 1 17 32
M  V30 33 1 18 33
M  V30 34 1 18 34
M  V30 35 1 18 35
M  V30 36 1 19 36
M  V30 37 1 19 37
M  V30 38 1 19 38
M  V30 END BOND
M  V30 END CTAB
M  END
