
     RDKit          3D

  0  0  0  0  0  0  0  0  0  0999 V3000
M  V30 BEGIN CTAB
M  V30 COUNTS 47 49 0 0 0
M  V30 BEGIN ATOM
M  V30 1 C -8.1284 2.16817 0.411563 0
M  V30 2 C -6.65063 1.9173 0.160116 0
M  V30 3 O -6.37291 0.549951 0.350019 0
M  V30 4 C -5.07272 0.0768888 0.169621 0
M  V30 5 C -4.08256 0.929167 -0.186246 0
M  V30 6 C -2.80251 0.483613 -0.368637 0
M  V30 7 C -2.52463 -0.8346 -0.188843 0
M  V30 8 C -3.5163 -1.72533 0.175278 0
M  V30 9 C -4.79942 -1.26444 0.355257 0
M  V30 10 N -1.18581 -1.30919 -0.390456 0
M  V30 11 C -0.0807714 -1.05351 0.489456 0
M  V30 12 C 1.05065 -1.8663 -0.0735685 0
M  V30 13 C 0.481277 -2.73923 -1.16074 0
M  V30 14 C -0.805537 -2.10365 -1.51311 0
M  V30 15 O -1.48555 -2.19892 -2.571 0
M  V30 16 C 2.07782 -0.90984 -0.609634 0
M  V30 17 O 1.97454 0.33263 -0.388173 0
M  V30 18 O 3.15737 -1.33813 -1.35054 0
M  V30 19 C 4.17592 -0.567881 -1.89301 0
M  V30 20 C 5.00513 0.172268 -0.914356 0
M  V30 21 N 6.14438 -0.45062 -0.482457 0
M  V30 22 C 6.98226 0.106893 0.397701 0
M  V30 23 N 8.16072 -0.58963 0.809569 0
M  V30 24 N 6.66257 1.32669 0.855833 0
M  V30 25 C 5.56851 1.99035 0.477732 0
M  V30 26 N 4.75149 1.37543 -0.420677 0
M  V30 27 N 5.30963 3.27425 1.01615 0
M  V30 28 H -8.27104 3.25983 0.506942 0
M  V30 29 H -8.73308 1.76901 -0.436903 0
M  V30 30 H -8.37846 1.66282 1.3586 0
M  V30 31 H -6.06322 2.55724 0.846156 0
M  V30 32 H -6.41621 2.1555 -0.891506 0
M  V30 33 H -4.30063 1.98352 -0.331782 0
M  V30 34 H -2.02576 1.17961 -0.652878 0
M  V30 35 H -3.29098 -2.75378 0.314875 0
M  V30 36 H -5.5964 -1.94777 0.642413 0
M  V30 37 H 0.160894 0.0343251 0.533676 0
M  V30 38 H -0.336803 -1.44633 1.48938 0
M  V30 39 H 1.51398 -2.50148 0.716667 0
M  V30 40 H 0.331262 -3.79109 -0.822714 0
M  V30 41 H 1.20088 -2.72709 -2.01766 0
M  V30 42 H 4.8033 -1.26048 -2.5289 0
M  V30 43 H 3.79815 0.185416 -2.64267 0
M  V30 44 H 8.74521 -0.224582 1.60203 0
M  V30 45 H 8.45843 -1.46351 0.334876 0
M  V30 46 H 5.51165 3.53317 2.00765 0
M  V30 47 H 4.8943 4.04335 0.434992 0
M  V30 END ATOM
M  V30 BEGIN BOND
M  V30 1 1 1 2
M  V30 2 1 2 3
M  V30 3 1 3 4
M  V30 4 2 4 5
M  V30 5 1 5 6
M  V30 6 2 6 7
M  V30 7 1 7 8
M  V30 8 2 8 9
M  V30 9 1 7 10
M  V30 10 1 10 11
M  V30 11 1 11 12
M  V30 12 1 12 13
M  V30 13 1 13 14
M  V30 14 2 14 15
M  V30 15 1 12 16
M  V30 16 2 16 17
M  V30 17 1 16 18
M  V30 18 1 18 19
M  V30 19 1 19 20
M  V30 20 2 20 21
M  V30 21 1 21 22
M  V30 22 1 22 23
M  V30 23 2 22 24
M  V30 24 1 24 25
M  V30 25 2 25 26
M  V30 26 1 25 27
M  V30 27 1 9 4
M  V30 28 1 14 10
M  V30 29 1 26 20
M  V30 30 1 1 28
M  V30 31 1 1 29
M  V30 32 1 1 30
M  V30 33 1 2 31
M  V30 34 1 2 32
M  V30 35 1 5 33
M  V30 36 1 6 34
M  V30 37 1 8 35
M  V30 38 1 9 36
M  V30 39 1 11 37
M  V30 40 1 11 38
M  V30 41 1 12 39
M  V30 42 1 13 40
M  V30 43 1 13 41
M  V30 44 1 19 42
M  V30 45 1 19 43
M  V30 46 1 23 44
M  V30 47 1 23 45
M  V30 48 1 27 46
M  V30 49 1 27 47
M  V30 END BOND
M  V30 END CTAB
M  END
