
     RDKit          3D

  0  0  0  0  0  0  0  0  0  0999 V3000
M  V30 BEGIN CTAB
M  V30 COUNTS 121 124 0 0 0
M  V30 BEGIN ATOM
M  V30 1 C -6.91425 -2.19021 -2.74454 0
M  V30 2 C -5.49924 -2.4991 -2.20133 0
M  V30 3 C -4.48869 -1.84804 -3.09713 0
M  V30 4 C -5.47167 -2.07312 -0.787282 0 CFG=2
M  V30 5 N -5.71901 -0.659545 -0.596025 0
M  V30 6 C -6.78134 -0.186519 0.193147 0
M  V30 7 O -7.5579 -0.970918 0.746701 0
M  V30 8 C -6.90475 1.33649 0.326147 0 CFG=1
M  V30 9 N -5.99386 1.91719 -0.603408 0
M  V30 10 C -8.32675 1.64955 0.203522 0
M  V30 11 C -8.89224 2.97586 0.348963 0
M  V30 12 C -8.58442 4.13229 -0.488528 0
M  V30 13 N -7.25857 4.64842 -0.441152 0
M  V30 14 C -6.77537 5.26156 0.763258 0
M  V30 15 N -7.6322 6.02442 1.57649 0
M  V30 16 N -5.5456 5.12176 1.12154 0
M  V30 17 C -4.3352 -2.4682 0.0466298 0
M  V30 18 O -3.9084 -1.58947 0.900806 0
M  V30 19 N -3.62761 -3.68832 0.0597059 0
M  V30 20 C -2.57795 -3.84613 1.01234 0 CFG=1
M  V30 21 C -2.59213 -5.2302 1.64315 0
M  V30 22 C -3.89689 -5.41409 2.32184 0
M  V30 23 C -5.02652 -5.89308 1.7267 0
M  V30 24 C -6.19625 -6.06317 2.4066 0
M  V30 25 C -6.27561 -5.74946 3.74434 0
M  V30 26 O -7.5032 -5.9448 4.39311 0
M  V30 27 C -5.16335 -5.26048 4.39844 0
M  V30 28 C -4.0024 -5.10215 3.67994 0
M  V30 29 C -1.22564 -3.61533 0.383488 0
M  V30 30 O -1.03237 -3.63667 -0.831726 0
M  V30 31 N -0.1813 -3.36218 1.29998 0
M  V30 32 C 1.16145 -3.1101 1.06236 0
M  V30 33 C 1.449 -1.92761 0.164356 0
M  V30 34 O 0.533765 -1.35493 -0.407315 0
M  V30 35 N 2.81803 -1.56631 0.0710599 0
M  V30 36 C 3.24483 -0.4472 -0.752094 0 CFG=1
M  V30 37 C 3.38975 0.814815 0.0999219 0
M  V30 38 C 2.13909 1.24542 0.759036 0
M  V30 39 C 1.73651 0.901131 2.05309 0
M  V30 40 N 0.551655 1.47978 2.27815 0
M  V30 41 C 0.186747 2.1755 1.1855 0
M  V30 42 N 1.15122 2.02521 0.278985 0
M  V30 43 C 4.53621 -0.807259 -1.36089 0
M  V30 44 O 5.01675 -1.96075 -1.06882 0
M  V30 45 N 5.31644 -0.0159746 -2.2356 0
M  V30 46 C 5.01774 1.26427 -2.78338 0
M  V30 47 C 5.72441 1.2681 -4.12368 0
M  V30 48 C 6.67419 0.104619 -4.10465 0
M  V30 49 C 6.62796 -0.390252 -2.70673 0 CFG=1
M  V30 50 C 7.73017 0.125963 -1.86163 0
M  V30 51 O 8.89671 -0.290988 -2.19899 0
M  V30 52 N 7.64376 0.98432 -0.785814 0
M  V30 53 C 8.80194 1.45442 0.00170202 0 CFG=1
M  V30 54 C 9.21847 2.7986 -0.4985 0
M  V30 55 C 10.3466 3.37416 0.232524 0
M  V30 56 C 10.1156 4.30395 1.24096 0
M  V30 57 C 11.126 4.8763 1.96723 0
M  V30 58 C 12.4501 4.53427 1.71094 0
M  V30 59 C 12.6769 3.61832 0.720981 0
M  V30 60 C 11.6675 3.03481 -0.0179706 0
M  V30 61 C 8.50449 1.34401 1.43815 0
M  V30 62 O 9.39408 1.64331 2.44878 0
M  V30 63 O 7.34356 0.94263 1.80216 0
M  V30 64 H -7.67744 -2.50125 -1.97905 0
M  V30 65 H -7.0192 -1.11158 -2.85414 0
M  V30 66 H -7.05477 -2.75215 -3.6737 0
M  V30 67 H -5.43727 -3.61938 -2.24139 0
M  V30 68 H -3.77998 -2.57818 -3.54069 0
M  V30 69 H -4.98201 -1.36154 -3.96314 0
M  V30 70 H -3.86108 -1.1404 -2.52169 0
M  V30 71 H -6.40825 -2.56883 -0.313389 0
M  V30 72 H -5.04297 0.0103653 -1.0898 0
M  V30 73 H -6.55768 1.57826 1.35392 0
M  V30 74 H -6.12056 1.66548 -1.58554 0
M  V30 75 H -5.00596 1.87739 -0.291553 0
M  V30 76 H -8.94174 0.955067 0.901222 0
M  V30 77 H -8.67288 1.18801 -0.815509 0
M  V30 78 H -10.0491 2.8257 0.379885 0
M  V30 79 H -8.73316 3.25853 1.47546 0
M  V30 80 H -8.88351 3.90932 -1.56495 0
M  V30 81 H -9.27759 4.98063 -0.168873 0
M  V30 82 H -6.57973 4.657 -1.23776 0
M  V30 83 H -8.0279 5.64191 2.45088 0
M  V30 84 H -7.86348 6.99795 1.28036 0
M  V30 85 H -4.89509 4.54799 0.514113 0
M  V30 86 H -3.87114 -4.4347 -0.605155 0
M  V30 87 H -2.66378 -3.03188 1.77557 0
M  V30 88 H -2.42493 -6.01453 0.899458 0
M  V30 89 H -1.78465 -5.20722 2.43172 0
M  V30 90 H -4.94647 -6.14731 0.655381 0
M  V30 91 H -7.0609 -6.45197 1.86733 0
M  V30 92 H -8.16245 -5.17474 4.40136 0
M  V30 93 H -5.25779 -5.02513 5.44212 0
M  V30 94 H -3.12855 -4.72322 4.17727 0
M  V30 95 H -0.476309 -3.36484 2.35181 0
M  V30 96 H 1.72585 -3.99649 0.656113 0
M  V30 97 H 1.69951 -2.89326 2.03737 0
M  V30 98 H 3.52942 -2.09305 0.590249 0
M  V30 99 H 2.42578 -0.227526 -1.44341 0
M  V30 100 H 3.92409 1.62236 -0.388642 0
M  V30 101 H 4.06548 0.467971 0.954674 0
M  V30 102 H 2.30131 0.272014 2.7455 0
M  V30 103 H -0.742748 2.74013 1.10241 0
M  V30 104 H 1.15842 2.44204 -0.672681 0
M  V30 105 H 5.30944 2.14204 -2.17547 0
M  V30 106 H 3.9073 1.33252 -2.91082 0
M  V30 107 H 6.26967 2.25289 -4.23954 0
M  V30 108 H 4.94009 1.19925 -4.9053 0
M  V30 109 H 6.38748 -0.678621 -4.85906 0
M  V30 110 H 7.68678 0.524743 -4.37957 0
M  V30 111 H 6.72441 -1.51733 -2.77323 0
M  V30 112 H 6.73156 1.3553 -0.459903 0
M  V30 113 H 9.68047 0.770161 -0.219069 0
M  V30 114 H 9.41698 2.70789 -1.59454 0
M  V30 115 H 8.33276 3.48028 -0.425969 0
M  V30 116 H 9.06601 4.57276 1.43595 0
M  V30 117 H 10.9495 5.59268 2.74392 0
M  V30 118 H 13.2599 4.99923 2.29824 0
M  V30 119 H 13.7014 3.34738 0.513126 0
M  V30 120 H 11.8872 2.30618 -0.80179 0
M  V30 121 H 9.00939 2.17483 3.24686 0
M  V30 END ATOM
M  V30 BEGIN BOND
M  V30 1 1 1 2
M  V30 2 1 2 3
M  V30 3 1 2 4
M  V30 4 1 4 5
M  V30 5 1 5 6
M  V30 6 2 6 7
M  V30 7 1 6 8
M  V30 8 1 8 9
M  V30 9 1 8 10
M  V30 10 1 10 11
M  V30 11 1 11 12
M  V30 12 1 12 13
M  V30 13 1 13 14
M  V30 14 1 14 15
M  V30 15 2 14 16 CFG=2
M  V30 16 1 4 17
M  V30 17 2 17 18
M  V30 18 1 17 19
M  V30 19 1 19 20
M  V30 20 1 20 21
M  V30 21 1 21 22
M  V30 22 2 22 23
M  V30 23 1 23 24
M  V30 24 2 24 25
M  V30 25 1 25 26
M  V30 26 1 25 27
M  V30 27 2 27 28
M  V30 28 1 20 29
M  V30 29 2 29 30
M  V30 30 1 29 31
M  V30 31 1 31 32
M  V30 32 1 32 33
M  V30 33 2 33 34
M  V30 34 1 33 35
M  V30 35 1 35 36
M  V30 36 1 36 37
M  V30 37 1 37 38
M  V30 38 2 38 39
M  V30 39 1 39 40
M  V30 40 2 40 41
M  V30 41 1 41 42
M  V30 42 1 36 43
M  V30 43 2 43 44
M  V30 44 1 43 45
M  V30 45 1 45 46
M  V30 46 1 46 47
M  V30 47 1 47 48
M  V30 48 1 48 49
M  V30 49 1 49 50
M  V30 50 2 50 51
M  V30 51 1 50 52
M  V30 52 1 52 53
M  V30 53 1 53 54
M  V30 54 1 54 55
M  V30 55 2 55 56
M  V30 56 1 56 57
M  V30 57 2 57 58
M  V30 58 1 58 59
M  V30 59 2 59 60
M  V30 60 1 53 61
M  V30 61 1 61 62
M  V30 62 2 61 63
M  V30 63 1 28 22
M  V30 64 1 42 38
M  V30 65 1 49 45
M  V30 66 1 60 55
M  V30 67 1 1 64
M  V30 68 1 1 65
M  V30 69 1 1 66
M  V30 70 1 2 67
M  V30 71 1 3 68
M  V30 72 1 3 69
M  V30 73 1 3 70
M  V30 74 1 4 71 CFG=1
M  V30 75 1 5 72
M  V30 76 1 8 73 CFG=1
M  V30 77 1 9 74
M  V30 78 1 9 75
M  V30 79 1 10 76
M  V30 80 1 10 77
M  V30 81 1 11 78
M  V30 82 1 11 79
M  V30 83 1 12 80
M  V30 84 1 12 81
M  V30 85 1 13 82
M  V30 86 1 15 83
M  V30 87 1 15 84
M  V30 88 1 16 85
M  V30 89 1 19 86
M  V30 90 1 20 87 CFG=1
M  V30 91 1 21 88
M  V30 92 1 21 89
M  V30 93 1 23 90
M  V30 94 1 24 91
M  V30 95 1 26 92
M  V30 96 1 27 93
M  V30 97 1 28 94
M  V30 98 1 31 95
M  V30 99 1 32 96
M  V30 100 1 32 97
M  V30 101 1 35 98
M  V30 102 1 36 99 CFG=3
M  V30 103 1 37 100
M  V30 104 1 37 101
M  V30 105 1 39 102
M  V30 106 1 41 103
M  V30 107 1 42 104
M  V30 108 1 46 105
M  V30 109 1 46 106
M  V30 110 1 47 107
M  V30 111 1 47 108
M  V30 112 1 48 109
M  V30 113 1 48 110
M  V30 114 1 49 111 CFG=3
M  V30 115 1 52 112
M  V30 116 1 53 113 CFG=1
M  V30 117 1 54 114
M  V30 118 1 54 115
M  V30 119 1 56 116
M  V30 120 1 57 117
M  V30 121 1 58 118
M  V30 122 1 59 119
M  V30 123 1 60 120
M  V30 124 1 62 121
M  V30 END BOND
M  V30 END CTAB
M  END
