
     RDKit          3D

  0  0  0  0  0  0  0  0  0  0999 V3000
M  V30 BEGIN CTAB
M  V30 COUNTS 22 23 0 0 0
M  V30 BEGIN ATOM
M  V30 1 C -1.47738 -0.873842 1.19835 0
M  V30 2 C -1.30492 0.00451446 -0.0443566 0
M  V30 3 C -2.35939 0.0680486 -1.06994 0
M  V30 4 C -2.29446 1.19881 -0.0816471 0
M  V30 5 C 0.0848305 0.384325 -0.421166 0
M  V30 6 N 0.426983 1.40606 -1.26437 0
M  V30 7 N 1.75208 1.459 -1.36158 0
M  V30 8 C 2.30896 0.503863 -0.614405 0
M  V30 9 N 1.25768 -0.142959 -0.044989 0
M  V30 10 N 1.40561 -1.22426 0.822716 0
M  V30 11 N 3.69984 0.213934 -0.45021 0
M  V30 12 H -0.773593 -0.454272 1.93994 0
M  V30 13 H -2.49028 -0.688211 1.6079 0
M  V30 14 H -1.32775 -1.92014 0.985874 0
M  V30 15 H -2.08265 0.34372 -2.09333 0
M  V30 16 H -3.24132 -0.640969 -0.937255 0
M  V30 17 H -1.87067 2.18014 -0.386318 0
M  V30 18 H -3.03164 1.26167 0.716596 0
M  V30 19 H 0.996051 -2.13477 0.554565 0
M  V30 20 H 1.908 -1.15187 1.7324 0
M  V30 21 H 4.40713 0.826701 -0.868928 0
M  V30 22 H 4.00688 -0.619494 0.0801505 0
M  V30 END ATOM
M  V30 BEGIN BOND
M  V30 1 1 1 2
M  V30 2 1 2 3
M  V30 3 1 3 4
M  V30 4 1 2 5
M  V30 5 2 5 6
M  V30 6 1 6 7
M  V30 7 2 7 8
M  V30 8 1 8 9
M  V30 9 1 9 10
M  V30 10 1 8 11
M  V30 11 1 4 2
M  V30 12 1 9 5
M  V30 13 1 1 12
M  V30 14 1 1 13
M  V30 15 1 1 14
M  V30 16 1 3 15
M  V30 17 1 3 16
M  V30 18 1 4 17
M  V30 19 1 4 18
M  V30 20 1 10 19
M  V30 21 1 10 20
M  V30 22 1 11 21
M  V30 23 1 11 22
M  V30 END BOND
M  V30 END CTAB
M  END
