
     RDKit          3D

  0  0  0  0  0  0  0  0  0  0999 V3000
M  V30 BEGIN CTAB
M  V30 COUNTS 23 23 0 0 0
M  V30 BEGIN ATOM
M  V30 1 C 3.93661 -0.495345 -0.43279 0
M  V30 2 C 3.49139 0.953401 -0.35724 0
M  V30 3 S 1.72588 0.980817 -0.78557 0
M  V30 4 C 0.843986 0.100778 0.544569 0
M  V30 5 C -0.613964 0.0566516 0.288669 0
M  V30 6 N -1.49102 0.983363 0.706183 0
M  V30 7 C -2.82506 0.867856 0.425848 0
M  V30 8 N -3.675 1.8869 0.904589 0
M  V30 9 N -3.23932 -0.185444 -0.272275 0
M  V30 10 C -2.39732 -1.13789 -0.710952 0
M  V30 11 N -1.10014 -0.981252 -0.412105 0
M  V30 12 N -2.83767 -2.27078 -1.46284 0
M  V30 13 H 5.02184 -0.523748 -0.253604 0
M  V30 14 H 3.6143 -0.908356 -1.3944 0
M  V30 15 H 3.43169 -1.04056 0.414441 0
M  V30 16 H 4.06866 1.59417 -1.05118 0
M  V30 17 H 3.67482 1.28855 0.667988 0
M  V30 18 H 1.27628 -0.919734 0.598485 0
M  V30 19 H 1.07788 0.578924 1.53978 0
M  V30 20 H -3.73918 2.09424 1.91638 0
M  V30 21 H -4.24389 2.43732 0.241106 0
M  V30 22 H -2.94829 -2.17163 -2.48972 0
M  V30 23 H -3.05246 -3.18823 -1.02601 0
M  V30 END ATOM
M  V30 BEGIN BOND
M  V30 1 1 1 2
M  V30 2 1 2 3
M  V30 3 1 3 4
M  V30 4 1 4 5
M  V30 5 2 5 6
M  V30 6 1 6 7
M  V30 7 1 7 8
M  V30 8 2 7 9
M  V30 9 1 9 10
M  V30 10 2 10 11
M  V30 11 1 10 12
M  V30 12 1 11 5
M  V30 13 1 1 13
M  V30 14 1 1 14
M  V30 15 1 1 15
M  V30 16 1 2 16
M  V30 17 1 2 17
M  V30 18 1 4 18
M  V30 19 1 4 19
M  V30 20 1 8 20
M  V30 21 1 8 21
M  V30 22 1 12 22
M  V30 23 1 12 23
M  V30 END BOND
M  V30 END CTAB
M  END
