
     RDKit          3D

  0  0  0  0  0  0  0  0  0  0999 V3000
M  V30 BEGIN CTAB
M  V30 COUNTS 47 50 0 0 0
M  V30 BEGIN ATOM
M  V30 1 N -2.86436 -2.4081 1.68858 0
M  V30 2 C -3.29791 -2.39598 0.358845 0
M  V30 3 C -2.45018 -1.41352 -0.4532 0 CFG=2
M  V30 4 C -1.02005 -1.90864 -0.352327 0
M  V30 5 N -0.215667 -0.691249 -0.406846 0
M  V30 6 C -1.05752 0.469493 -0.324343 0
M  V30 7 C -2.35892 -0.0760586 0.225283 0 CFG=1
M  V30 8 C -3.43577 0.855261 -0.165316 0
M  V30 9 C -3.70828 1.20419 -1.45892 0
M  V30 10 C -4.72918 2.07906 -1.74603 0
M  V30 11 C -5.50964 2.63287 -0.752536 0
M  V30 12 C -5.23885 2.28494 0.545494 0
M  V30 13 C -4.20195 1.39555 0.845663 0
M  V30 14 C 1.19473 -0.669184 -0.524498 0
M  V30 15 O 1.86243 -1.73241 -0.591204 0
M  V30 16 C 1.92313 0.613982 -0.572249 0
M  V30 17 N 3.34709 0.430703 -0.693201 0
M  V30 18 C 4.04833 0.339493 -1.85934 0
M  V30 19 N 5.34615 0.172696 -1.56147 0
M  V30 20 C 5.50075 0.153879 -0.238791 0
M  V30 21 C 4.25029 0.315268 0.301127 0
M  V30 22 N 4.05634 0.341396 1.64481 0
M  V30 23 C 5.13006 0.203916 2.43736 0
M  V30 24 N 6.37018 0.0438933 1.91631 0
M  V30 25 C 6.60527 0.0124803 0.593176 0
M  V30 26 N 7.90777 -0.155537 0.0576454 0
M  V30 27 H -3.21579 -1.75081 2.31988 0
M  V30 28 H -2.63375 -3.28741 2.04504 0
M  V30 29 H -3.16343 -3.4048 -0.0866952 0
M  V30 30 H -4.37279 -2.15171 0.278387 0
M  V30 31 H -2.75201 -1.37773 -1.49823 0
M  V30 32 H -0.753154 -2.62915 -1.1333 0
M  V30 33 H -0.88822 -2.3257 0.688943 0
M  V30 34 H -0.642585 1.25561 0.346843 0
M  V30 35 H -1.20439 0.851879 -1.36214 0
M  V30 36 H -2.2847 -0.237241 1.29791 0
M  V30 37 H -3.07373 0.750126 -2.22611 0
M  V30 38 H -4.9193 2.33578 -2.78925 0
M  V30 39 H -6.30854 3.31968 -1.00055 0
M  V30 40 H -5.85325 2.72195 1.31697 0
M  V30 41 H -4.04686 1.16774 1.89033 0
M  V30 42 H 1.68789 1.20823 0.349649 0
M  V30 43 H 1.59445 1.26441 -1.42048 0
M  V30 44 H 3.57071 0.400171 -2.8353 0
M  V30 45 H 5.04782 0.215475 3.5284 0
M  V30 46 H 8.3331 -1.1006 0.00839072 0
M  V30 47 H 8.42425 0.675708 -0.281399 0
M  V30 END ATOM
M  V30 BEGIN BOND
M  V30 1 1 1 2
M  V30 2 1 2 3
M  V30 3 1 3 4
M  V30 4 1 4 5
M  V30 5 1 5 6
M  V30 6 1 6 7
M  V30 7 1 7 8
M  V30 8 2 8 9
M  V30 9 1 9 10
M  V30 10 2 10 11
M  V30 11 1 11 12
M  V30 12 2 12 13
M  V30 13 1 5 14
M  V30 14 2 14 15
M  V30 15 1 14 16
M  V30 16 1 16 17
M  V30 17 1 17 18
M  V30 18 2 18 19
M  V30 19 1 19 20
M  V30 20 2 20 21
M  V30 21 1 21 22
M  V30 22 2 22 23
M  V30 23 1 23 24
M  V30 24 2 24 25
M  V30 25 1 25 26
M  V30 26 1 7 3
M  V30 27 1 13 8
M  V30 28 1 21 17
M  V30 29 1 25 20
M  V30 30 1 1 27
M  V30 31 1 1 28
M  V30 32 1 2 29
M  V30 33 1 2 30
M  V30 34 1 3 31 CFG=3
M  V30 35 1 4 32
M  V30 36 1 4 33
M  V30 37 1 6 34
M  V30 38 1 6 35
M  V30 39 1 7 36 CFG=1
M  V30 40 1 9 37
M  V30 41 1 10 38
M  V30 42 1 11 39
M  V30 43 1 12 40
M  V30 44 1 13 41
M  V30 45 1 16 42
M  V30 46 1 16 43
M  V30 47 1 18 44
M  V30 48 1 23 45
M  V30 49 1 26 46
M  V30 50 1 26 47
M  V30 END BOND
M  V30 END CTAB
M  END
