
     RDKit          3D

  0  0  0  0  0  0  0  0  0  0999 V3000
M  V30 BEGIN CTAB
M  V30 COUNTS 30 31 0 0 0
M  V30 BEGIN ATOM
M  V30 1 N -3.46976 -1.70234 -0.928162 0
M  V30 2 C -4.08112 -0.592735 -0.291615 0
M  V30 3 C -3.33813 0.428708 0.250854 0
M  V30 4 C -4.01083 1.47091 0.852015 0
M  V30 5 C -5.38781 1.48567 0.906083 0
M  V30 6 C -6.12945 0.462416 0.362566 0
M  V30 7 C -5.47868 -0.579422 -0.237662 0
M  V30 8 C -1.91469 0.35647 0.163315 0
M  V30 9 C -0.709248 0.314862 0.100078 0
M  V30 10 C 0.709077 0.275659 0.0412952 0
M  V30 11 C 1.92079 0.248868 0.00299502 0
M  V30 12 C 3.36583 0.241884 -0.0457607 0
M  V30 13 C 4.10422 -0.72547 0.60911 0
M  V30 14 N 3.38688 -1.7066 1.32777 0
M  V30 15 C 5.50179 -0.742826 0.569431 0
M  V30 16 C 6.13762 0.247178 -0.152469 0
M  V30 17 C 5.43588 1.22408 -0.815433 0
M  V30 18 C 4.06047 1.21542 -0.758228 0
M  V30 19 H -3.63054 -1.87921 -1.93585 0
M  V30 20 H -2.85671 -2.34634 -0.391354 0
M  V30 21 H -3.46485 2.30611 1.29762 0
M  V30 22 H -5.86777 2.32847 1.3901 0
M  V30 23 H -7.22593 0.499565 0.419724 0
M  V30 24 H -6.0235 -1.38553 -0.667151 0
M  V30 25 H 3.19219 -2.62259 0.894714 0
M  V30 26 H 3.06236 -1.50126 2.28049 0
M  V30 27 H 6.07526 -1.50071 1.08268 0
M  V30 28 H 7.21405 0.236394 -0.184852 0
M  V30 29 H 5.96849 1.98183 -1.36968 0
M  V30 30 H 3.45412 1.96055 -1.26127 0
M  V30 END ATOM
M  V30 BEGIN BOND
M  V30 1 1 1 2
M  V30 2 2 2 3
M  V30 3 1 3 4
M  V30 4 2 4 5
M  V30 5 1 5 6
M  V30 6 2 6 7
M  V30 7 1 3 8
M  V30 8 3 8 9
M  V30 9 1 9 10
M  V30 10 3 10 11
M  V30 11 1 11 12
M  V30 12 2 12 13
M  V30 13 1 13 14
M  V30 14 1 13 15
M  V30 15 2 15 16
M  V30 16 1 16 17
M  V30 17 2 17 18
M  V30 18 1 7 2
M  V30 19 1 18 12
M  V30 20 1 1 19
M  V30 21 1 1 20
M  V30 22 1 4 21
M  V30 23 1 5 22
M  V30 24 1 6 23
M  V30 25 1 7 24
M  V30 26 1 14 25
M  V30 27 1 14 26
M  V30 28 1 15 27
M  V30 29 1 16 28
M  V30 30 1 17 29
M  V30 31 1 18 30
M  V30 END BOND
M  V30 END CTAB
M  END
