
     RDKit          3D

  0  0  0  0  0  0  0  0  0  0999 V3000
M  V30 BEGIN CTAB
M  V30 COUNTS 41 41 0 0 0
M  V30 BEGIN ATOM
M  V30 1 N 6.42262 0.191939 -0.305881 0
M  V30 2 C 5.72667 -1.00367 0.0361172 0
M  V30 3 C 4.24936 -0.8401 0.0507774 0
M  V30 4 C 3.47996 -1.93989 0.370004 0
M  V30 5 C 2.10574 -1.82138 0.39252 0
M  V30 6 C 1.43667 -0.660464 0.113401 0
M  V30 7 C 2.20779 0.435283 -0.20491 0
M  V30 8 C 3.60581 0.334924 -0.233084 0
M  V30 9 C -0.0261693 -0.651918 0.165163 0
M  V30 10 O -0.577273 -1.76648 0.287614 0
M  V30 11 N -0.789594 0.516663 0.0852487 0
M  V30 12 C -2.19297 0.725822 0.0987611 0
M  V30 13 C -2.97506 0.26331 -1.07818 0
M  V30 14 C -2.97889 -1.17025 -1.43269 0
M  V30 15 C -4.45681 0.677607 -0.93176 0
M  V30 16 C -2.82397 0.0742971 1.3505 0
M  V30 17 N -2.2881 0.619605 2.56024 0
M  V30 18 C -2.44327 2.23232 0.344308 0
M  V30 19 H 6.63433 0.319697 -1.29961 0
M  V30 20 H 6.13394 1.03183 0.203622 0
M  V30 21 H 6.01303 -1.80666 -0.655784 0
M  V30 22 H 6.01412 -1.29456 1.07802 0
M  V30 23 H 3.95524 -2.8986 0.603518 0
M  V30 24 H 1.55507 -2.71159 0.648566 0
M  V30 25 H 1.75228 1.36617 -0.433673 0
M  V30 26 H 4.21813 1.19058 -0.481982 0
M  V30 27 H -0.191708 1.42013 -0.00442929 0
M  V30 28 H -2.58888 0.838185 -1.99046 0
M  V30 29 H -3.86067 -1.30921 -2.15815 0
M  V30 30 H -3.24798 -1.85629 -0.606619 0
M  V30 31 H -2.12159 -1.51089 -2.05512 0
M  V30 32 H -4.5039 1.67655 -0.504358 0
M  V30 33 H -4.87363 0.64305 -1.95727 0
M  V30 34 H -4.96799 -0.11611 -0.358321 0
M  V30 35 H -3.90092 0.32328 1.31958 0
M  V30 36 H -2.69602 -1.00621 1.28061 0
M  V30 37 H -1.48889 0.0646581 2.93704 0
M  V30 38 H -2.11642 1.62984 2.53913 0
M  V30 39 H -1.56028 2.62129 0.847006 0
M  V30 40 H -3.31841 2.40653 0.977834 0
M  V30 41 H -2.52136 2.76072 -0.638707 0
M  V30 END ATOM
M  V30 BEGIN BOND
M  V30 1 1 1 2
M  V30 2 1 2 3
M  V30 3 2 3 4
M  V30 4 1 4 5
M  V30 5 2 5 6
M  V30 6 1 6 7
M  V30 7 2 7 8
M  V30 8 1 6 9
M  V30 9 2 9 10
M  V30 10 1 9 11
M  V30 11 1 11 12
M  V30 12 1 12 13
M  V30 13 1 13 14
M  V30 14 1 13 15
M  V30 15 1 12 16
M  V30 16 1 16 17
M  V30 17 1 12 18
M  V30 18 1 8 3
M  V30 19 1 1 19
M  V30 20 1 1 20
M  V30 21 1 2 21
M  V30 22 1 2 22
M  V30 23 1 4 23
M  V30 24 1 5 24
M  V30 25 1 7 25
M  V30 26 1 8 26
M  V30 27 1 11 27
M  V30 28 1 13 28
M  V30 29 1 14 29
M  V30 30 1 14 30
M  V30 31 1 14 31
M  V30 32 1 15 32
M  V30 33 1 15 33
M  V30 34 1 15 34
M  V30 35 1 16 35
M  V30 36 1 16 36
M  V30 37 1 17 37
M  V30 38 1 17 38
M  V30 39 1 18 39
M  V30 40 1 18 40
M  V30 41 1 18 41
M  V30 END BOND
M  V30 END CTAB
M  END
