
     RDKit          3D

  0  0  0  0  0  0  0  0  0  0999 V3000
M  V30 BEGIN CTAB
M  V30 COUNTS 29 31 0 0 0
M  V30 BEGIN ATOM
M  V30 1 Cl 6.57166 -0.923511 -0.438205 0
M  V30 2 C 4.9969 -0.223085 -0.125835 0
M  V30 3 C 4.84128 1.0532 0.36645 0
M  V30 4 C 3.58546 1.57197 0.600336 0
M  V30 5 C 2.42718 0.83224 0.350378 0
M  V30 6 C 2.59432 -0.44458 -0.142439 0
M  V30 7 C 3.85351 -0.954132 -0.372895 0
M  V30 8 N 1.35613 -0.933301 -0.294179 0
M  V30 9 C 0.462771 -0.0055029 0.085793 0
M  V30 10 N 1.11539 1.09412 0.487647 0
M  V30 11 C -0.999013 -0.146013 0.0735178 0
M  V30 12 C -1.55349 -1.32929 -0.363105 0
M  V30 13 C -2.92318 -1.47 -0.378058 0
M  V30 14 N -3.52011 -2.6754 -0.821942 0
M  V30 15 C -3.72014 -0.407788 0.050602 0
M  V30 16 C -3.17546 0.780843 0.489547 0
M  V30 17 C -1.81286 0.883816 0.490276 0
M  V30 18 N -4.04543 1.81384 0.909083 0
M  V30 19 Cl -5.46438 -0.589887 0.0304625 0
M  V30 20 H 5.74831 1.62242 0.558349 0
M  V30 21 H 3.46249 2.58407 0.990704 0
M  V30 22 H 3.97954 -1.96986 -0.764748 0
M  V30 23 H 0.708981 1.98302 0.838947 0
M  V30 24 H -0.919623 -2.16515 -0.700619 0
M  V30 25 H -3.08454 -3.18016 -1.62324 0
M  V30 26 H -4.37488 -3.07488 -0.379323 0
M  V30 27 H -1.37828 1.82527 0.837847 0
M  V30 28 H -3.74625 2.8095 0.803347 0
M  V30 29 H -4.98628 1.63824 1.3259 0
M  V30 END ATOM
M  V30 BEGIN BOND
M  V30 1 1 1 2
M  V30 2 2 2 3
M  V30 3 1 3 4
M  V30 4 2 4 5
M  V30 5 1 5 6
M  V30 6 2 6 7
M  V30 7 1 6 8
M  V30 8 2 8 9
M  V30 9 1 9 10
M  V30 10 1 9 11
M  V30 11 2 11 12
M  V30 12 1 12 13
M  V30 13 1 13 14
M  V30 14 2 13 15
M  V30 15 1 15 16
M  V30 16 2 16 17
M  V30 17 1 16 18
M  V30 18 1 15 19
M  V30 19 1 7 2
M  V30 20 1 17 11
M  V30 21 1 10 5
M  V30 22 1 3 20
M  V30 23 1 4 21
M  V30 24 1 7 22
M  V30 25 1 10 23
M  V30 26 1 12 24
M  V30 27 1 14 25
M  V30 28 1 14 26
M  V30 29 1 17 27
M  V30 30 1 18 28
M  V30 31 1 18 29
M  V30 END BOND
M  V30 END CTAB
M  END
