
     RDKit          3D

  0  0  0  0  0  0  0  0  0  0999 V3000
M  V30 BEGIN CTAB
M  V30 COUNTS 49 51 0 0 0
M  V30 BEGIN ATOM
M  V30 1 C 1.63244 -2.4811 1.72195 0
M  V30 2 N 1.15112 -1.11648 1.77133 0
M  V30 3 C 1.87456 0.000441164 2.29236 0
M  V30 4 C 3.1827 0.211772 1.653 0
M  V30 5 N 3.37261 0.114864 0.327667 0
M  V30 6 C 4.57967 0.309178 -0.242895 0
M  V30 7 C 4.76679 0.205651 -1.59906 0
M  V30 8 N 3.69023 -0.110041 -2.46715 0
M  V30 9 N 5.98479 0.403226 -2.13814 0
M  V30 10 C 7.04364 0.705609 -1.36283 0
M  V30 11 N 8.33304 0.912808 -1.94507 0
M  V30 12 N 6.87773 0.809527 -0.0470885 0
M  V30 13 C 5.68155 0.622431 0.551226 0
M  V30 14 N 5.50337 0.723275 1.8847 0
M  V30 15 C 4.29012 0.522898 2.41132 0
M  V30 16 C -0.16799 -0.906259 1.24777 0
M  V30 17 C -0.385921 -0.451333 -0.03325 0
M  V30 18 C -1.6661 -0.260513 -0.525807 0
M  V30 19 C -2.78484 -0.519257 0.248597 0
M  V30 20 C -2.53357 -0.972016 1.52308 0
M  V30 21 C -1.28032 -1.1696 2.03633 0
M  V30 22 C -4.15086 -0.341038 -0.203359 0
M  V30 23 O -5.05682 -0.834014 0.550369 0
M  V30 24 N -4.53326 0.313529 -1.36792 0
M  V30 25 C -5.88027 0.500822 -1.82104 0
M  V30 26 C -6.65301 1.31894 -0.836406 0
M  V30 27 C -8.05146 1.55858 -1.26452 0
M  V30 28 O -8.88847 2.30061 -0.46863 0
M  V30 29 O -8.45498 1.08544 -2.34046 0
M  V30 30 H 2.70342 -2.53185 1.96886 0
M  V30 31 H 1.0284 -3.12714 2.42902 0
M  V30 32 H 1.3722 -2.87691 0.718912 0
M  V30 33 H 1.21625 0.912515 2.20372 0
M  V30 34 H 1.97558 -0.158985 3.40314 0
M  V30 35 H 3.22292 0.617317 -3.04317 0
M  V30 36 H 3.36649 -1.08078 -2.52689 0
M  V30 37 H 8.64534 1.83065 -2.28831 0
M  V30 38 H 8.966 0.103887 -2.01814 0
M  V30 39 H 4.16919 0.610365 3.49782 0
M  V30 40 H 0.454949 -0.230055 -0.686648 0
M  V30 41 H -1.8476 0.0990085 -1.53689 0
M  V30 42 H -3.3765 -1.19843 2.19641 0
M  V30 43 H -1.08822 -1.52475 3.03021 0
M  V30 44 H -3.77457 0.720543 -1.99224 0
M  V30 45 H -5.93395 0.906574 -2.85515 0
M  V30 46 H -6.41994 -0.494555 -1.87484 0
M  V30 47 H -6.10934 2.27996 -0.696141 0
M  V30 48 H -6.73344 0.754567 0.117903 0
M  V30 49 H -9.31363 1.99133 0.396342 0
M  V30 END ATOM
M  V30 BEGIN BOND
M  V30 1 1 1 2
M  V30 2 1 2 3
M  V30 3 1 3 4
M  V30 4 2 4 5
M  V30 5 1 5 6
M  V30 6 2 6 7
M  V30 7 1 7 8
M  V30 8 1 7 9
M  V30 9 2 9 10
M  V30 10 1 10 11
M  V30 11 1 10 12
M  V30 12 2 12 13
M  V30 13 1 13 14
M  V30 14 2 14 15
M  V30 15 1 2 16
M  V30 16 2 16 17
M  V30 17 1 17 18
M  V30 18 2 18 19
M  V30 19 1 19 20
M  V30 20 2 20 21
M  V30 21 1 19 22
M  V30 22 2 22 23
M  V30 23 1 22 24
M  V30 24 1 24 25
M  V30 25 1 25 26
M  V30 26 1 26 27
M  V30 27 1 27 28
M  V30 28 2 27 29
M  V30 29 1 15 4
M  V30 30 1 21 16
M  V30 31 1 13 6
M  V30 32 1 1 30
M  V30 33 1 1 31
M  V30 34 1 1 32
M  V30 35 1 3 33
M  V30 36 1 3 34
M  V30 37 1 8 35
M  V30 38 1 8 36
M  V30 39 1 11 37
M  V30 40 1 11 38
M  V30 41 1 15 39
M  V30 42 1 17 40
M  V30 43 1 18 41
M  V30 44 1 20 42
M  V30 45 1 21 43
M  V30 46 1 24 44
M  V30 47 1 25 45
M  V30 48 1 25 46
M  V30 49 1 26 47
M  V30 50 1 26 48
M  V30 51 1 28 49
M  V30 END BOND
M  V30 END CTAB
M  END
