
     RDKit          3D

  0  0  0  0  0  0  0  0  0  0999 V3000
M  V30 BEGIN CTAB
M  V30 COUNTS 42 42 0 0 0
M  V30 BEGIN ATOM
M  V30 1 N -6.6634 2.2027 -2.215 0
M  V30 2 C -6.07928 1.59991 -1.41504 0
M  V30 3 C -5.30956 0.845576 -0.405083 0
M  V30 4 C -6.02021 0.0101485 0.332593 0
M  V30 5 N -5.42672 -0.784537 1.34486 0
M  V30 6 C -7.51445 -0.110008 0.0981196 0
M  V30 7 C -3.89244 1.06364 -0.30658 0
M  V30 8 O -3.37811 1.905 -1.08421 0
M  V30 9 C -3.02538 0.372679 0.633476 0
M  V30 10 O -1.66105 0.750474 0.52778 0
M  V30 11 C -0.870561 0.552685 -0.581586 0
M  V30 12 O -1.38096 -0.00922163 -1.58053 0
M  V30 13 C 0.558326 1.00348 -0.577147 0
M  V30 14 N 1.13482 0.678729 -1.84372 0
M  V30 15 S 2.7745 1.13452 -1.99217 0
M  V30 16 O 3.23892 0.687623 -3.3728 0
M  V30 17 O 2.98187 2.60663 -1.87069 0
M  V30 18 C 3.80615 0.340909 -0.841125 0
M  V30 19 C 4.0195 0.952121 0.378558 0
M  V30 20 C 4.83548 0.350456 1.32275 0
M  V30 21 C 5.4477 -0.866946 1.06162 0
M  V30 22 C 5.2377 -1.4803 -0.153655 0
M  V30 23 C 4.42551 -0.858396 -1.06443 0
M  V30 24 N 5.87914 -2.7257 -0.389676 0 CHG=1
M  V30 25 O 6.13497 -3.57095 0.46279 0
M  V30 26 O 6.25822 -3.03507 -1.69561 0 CHG=-1
M  V30 27 N 6.271 -1.43953 2.05398 0
M  V30 28 H -5.32409 -0.422118 2.29973 0
M  V30 29 H -5.09626 -1.76321 1.10302 0
M  V30 30 H -7.72622 -0.0247906 -0.977579 0
M  V30 31 H -7.99071 0.742856 0.623281 0
M  V30 32 H -7.89656 -1.0487 0.511212 0
M  V30 33 H -3.31521 0.640577 1.66814 0
M  V30 34 H -3.04767 -0.736642 0.536847 0
M  V30 35 H 1.14545 0.523037 0.223563 0
M  V30 36 H 0.571918 2.10062 -0.45181 0
M  V30 37 H 0.943645 -0.27875 -2.14932 0
M  V30 38 H 3.57882 1.89923 0.656751 0
M  V30 39 H 5.0097 0.823463 2.28528 0
M  V30 40 H 4.26251 -1.33946 -2.01507 0
M  V30 41 H 5.90313 -1.41518 3.04299 0
M  V30 42 H 7.19986 -1.87758 1.89027 0
M  V30 END ATOM
M  V30 BEGIN BOND
M  V30 1 3 1 2
M  V30 2 1 2 3
M  V30 3 2 3 4
M  V30 4 1 4 5
M  V30 5 1 4 6
M  V30 6 1 3 7
M  V30 7 2 7 8
M  V30 8 1 7 9
M  V30 9 1 9 10
M  V30 10 1 10 11
M  V30 11 2 11 12
M  V30 12 1 11 13
M  V30 13 1 13 14
M  V30 14 1 14 15
M  V30 15 2 15 16
M  V30 16 2 15 17
M  V30 17 1 15 18
M  V30 18 2 18 19
M  V30 19 1 19 20
M  V30 20 2 20 21
M  V30 21 1 21 22
M  V30 22 2 22 23
M  V30 23 1 22 24
M  V30 24 2 24 25
M  V30 25 1 24 26
M  V30 26 1 21 27
M  V30 27 1 23 18
M  V30 28 1 5 28
M  V30 29 1 5 29
M  V30 30 1 6 30
M  V30 31 1 6 31
M  V30 32 1 6 32
M  V30 33 1 9 33
M  V30 34 1 9 34
M  V30 35 1 13 35
M  V30 36 1 13 36
M  V30 37 1 14 37
M  V30 38 1 19 38
M  V30 39 1 20 39
M  V30 40 1 23 40
M  V30 41 1 27 41
M  V30 42 1 27 42
M  V30 END BOND
M  V30 END CTAB
M  END
