
     RDKit          3D

  0  0  0  0  0  0  0  0  0  0999 V3000
M  V30 BEGIN CTAB
M  V30 COUNTS 53 56 0 0 0
M  V30 BEGIN ATOM
M  V30 1 N 7.81362 0.649177 1.06596 0
M  V30 2 C 6.6109 0.212913 0.418151 0
M  V30 3 N 6.63002 -0.257823 -0.829433 0
M  V30 4 C 5.54458 -0.676704 -1.48005 0
M  V30 5 N 5.62313 -1.16837 -2.80788 0
M  V30 6 N 4.35801 -0.613178 -0.818151 0
M  V30 7 C 4.25811 -0.152379 0.436894 0
M  V30 8 C 5.39573 0.266461 1.06571 0
M  V30 9 N 2.99995 -0.111604 1.07287 0
M  V30 10 C 2.79403 0.398527 2.4152 0
M  V30 11 C 1.37474 0.927874 2.47357 0
M  V30 12 C 0.974481 1.57221 1.16118 0
M  V30 13 C 0.874418 0.55539 0.0497308 0
M  V30 14 C 1.78271 -0.598356 0.401983 0
M  V30 15 C -0.533713 0.153673 -0.0879043 0
M  V30 16 N -1.22053 -0.465262 0.899259 0
M  V30 17 N -2.43207 -0.693047 0.485571 0
M  V30 18 C -2.60175 -0.243666 -0.772766 0
M  V30 19 N -1.39539 0.282658 -1.1078 0
M  V30 20 C -1.07413 0.896058 -2.3772 0
M  V30 21 C -3.8278 -0.311388 -1.59916 0
M  V30 22 N -4.86777 -0.96304 -0.828468 0
M  V30 23 C -6.10599 -1.07434 -1.56607 0
M  V30 24 C -7.12963 -1.20593 -0.458117 0
M  V30 25 C -6.65083 -0.108078 0.497161 0
M  V30 26 C -5.14408 -0.300441 0.406532 0
M  V30 27 H 8.68687 0.115681 0.907338 0
M  V30 28 H 7.84315 1.47735 1.68658 0
M  V30 29 H 6.03835 -0.571816 -3.5361 0
M  V30 30 H 5.27093 -2.10612 -3.04046 0
M  V30 31 H 5.37603 0.643511 2.06874 0
M  V30 32 H 3.53 1.12837 2.74549 0
M  V30 33 H 2.88503 -0.497644 3.09487 0
M  V30 34 H 0.701349 0.0669134 2.63771 0
M  V30 35 H 1.22557 1.67894 3.26209 0
M  V30 36 H -0.0293281 2.01396 1.31145 0
M  V30 37 H 1.64644 2.41169 0.892942 0
M  V30 38 H 1.20782 1.03757 -0.884788 0
M  V30 39 H 2.08559 -1.15822 -0.502669 0
M  V30 40 H 1.30891 -1.30262 1.10643 0
M  V30 41 H -0.245972 1.62439 -2.29844 0
M  V30 42 H -0.885688 0.0868226 -3.10602 0
M  V30 43 H -1.94859 1.46193 -2.76146 0
M  V30 44 H -3.70051 -0.875752 -2.53558 0
M  V30 45 H -4.11279 0.723101 -1.85159 0
M  V30 46 H -6.05864 -1.99776 -2.17406 0
M  V30 47 H -6.30993 -0.166035 -2.15756 0
M  V30 48 H -7.01539 -2.16036 0.0578812 0
M  V30 49 H -8.15612 -1.01014 -0.806462 0
M  V30 50 H -7.02614 -0.251882 1.51604 0
M  V30 51 H -6.85958 0.895091 0.0738731 0
M  V30 52 H -4.87696 -0.91727 1.31195 0
M  V30 53 H -4.63116 0.678978 0.514471 0
M  V30 END ATOM
M  V30 BEGIN BOND
M  V30 1 1 1 2
M  V30 2 2 2 3
M  V30 3 1 3 4
M  V30 4 1 4 5
M  V30 5 2 4 6
M  V30 6 1 6 7
M  V30 7 2 7 8
M  V30 8 1 7 9
M  V30 9 1 9 10
M  V30 10 1 10 11
M  V30 11 1 11 12
M  V30 12 1 12 13
M  V30 13 1 13 14
M  V30 14 1 13 15
M  V30 15 2 15 16
M  V30 16 1 16 17
M  V30 17 2 17 18
M  V30 18 1 18 19
M  V30 19 1 19 20
M  V30 20 1 18 21
M  V30 21 1 21 22
M  V30 22 1 22 23
M  V30 23 1 23 24
M  V30 24 1 24 25
M  V30 25 1 25 26
M  V30 26 1 8 2
M  V30 27 1 14 9
M  V30 28 1 19 15
M  V30 29 1 26 22
M  V30 30 1 1 27
M  V30 31 1 1 28
M  V30 32 1 5 29
M  V30 33 1 5 30
M  V30 34 1 8 31
M  V30 35 1 10 32
M  V30 36 1 10 33
M  V30 37 1 11 34
M  V30 38 1 11 35
M  V30 39 1 12 36
M  V30 40 1 12 37
M  V30 41 1 13 38
M  V30 42 1 14 39
M  V30 43 1 14 40
M  V30 44 1 20 41
M  V30 45 1 20 42
M  V30 46 1 20 43
M  V30 47 1 21 44
M  V30 48 1 21 45
M  V30 49 1 23 46
M  V30 50 1 23 47
M  V30 51 1 24 48
M  V30 52 1 24 49
M  V30 53 1 25 50
M  V30 54 1 25 51
M  V30 55 1 26 52
M  V30 56 1 26 53
M  V30 END BOND
M  V30 END CTAB
M  END
