
     RDKit          3D

  0  0  0  0  0  0  0  0  0  0999 V3000
M  V30 BEGIN CTAB
M  V30 COUNTS 26 27 0 0 0
M  V30 BEGIN ATOM
M  V30 1 N -4.53888 1.02436 -0.31487 0
M  V30 2 C -3.66355 -0.104077 -0.328904 0
M  V30 3 C -2.20332 0.281138 -0.176279 0
M  V30 4 C -1.40962 -1.01399 -0.210122 0
M  V30 5 C 0.0482781 -0.755338 -0.067499 0
M  V30 6 N 0.690142 0.422765 0.0778016 0
M  V30 7 C 1.99329 0.144242 0.165754 0
M  V30 8 C 2.19331 -1.22025 0.076771 0
M  V30 9 N 0.956279 -1.7475 -0.0680995 0
M  V30 10 N 3.43956 -1.6753 0.14624 0
M  V30 11 C 4.5258 -0.89007 0.298424 0
M  V30 12 N 4.315 0.437078 0.383604 0
M  V30 13 C 3.08715 0.989182 0.323208 0
M  V30 14 N 2.86578 2.38948 0.413205 0
M  V30 15 H -4.09607 1.93491 -0.17389 0
M  V30 16 H -5.32595 0.987796 -0.967418 0
M  V30 17 H -3.88149 -0.819448 0.491437 0
M  V30 18 H -3.73816 -0.673206 -1.28314 0
M  V30 19 H -1.86029 0.901592 -1.02842 0
M  V30 20 H -2.01635 0.808281 0.780542 0
M  V30 21 H -1.72543 -1.64528 0.627986 0
M  V30 22 H -1.55997 -1.54205 -1.15368 0
M  V30 23 H 0.793108 -2.78793 -0.162482 0
M  V30 24 H 5.53786 -1.30635 0.351213 0
M  V30 25 H 3.10492 3.01832 -0.403766 0
M  V30 26 H 2.4686 2.84164 1.26716 0
M  V30 END ATOM
M  V30 BEGIN BOND
M  V30 1 1 1 2
M  V30 2 1 2 3
M  V30 3 1 3 4
M  V30 4 1 4 5
M  V30 5 2 5 6
M  V30 6 1 6 7
M  V30 7 2 7 8
M  V30 8 1 8 9
M  V30 9 1 8 10
M  V30 10 2 10 11
M  V30 11 1 11 12
M  V30 12 2 12 13
M  V30 13 1 13 14
M  V30 14 1 9 5
M  V30 15 1 13 7
M  V30 16 1 1 15
M  V30 17 1 1 16
M  V30 18 1 2 17
M  V30 19 1 2 18
M  V30 20 1 3 19
M  V30 21 1 3 20
M  V30 22 1 4 21
M  V30 23 1 4 22
M  V30 24 1 9 23
M  V30 25 1 11 24
M  V30 26 1 14 25
M  V30 27 1 14 26
M  V30 END BOND
M  V30 END CTAB
M  END
