
     RDKit          3D

  0  0  0  0  0  0  0  0  0  0999 V3000
M  V30 BEGIN CTAB
M  V30 COUNTS 42 43 0 0 0
M  V30 BEGIN ATOM
M  V30 1 N -0.18988 3.11945 -1.34799 0
M  V30 2 C -1.30184 2.30629 -0.853446 0
M  V30 3 C -0.889892 0.851245 -0.79474 0
M  V30 4 C -2.02965 0.00726163 -0.288601 0
M  V30 5 C -1.65959 -1.46405 -0.216171 0
M  V30 6 C -2.86686 -2.23384 0.243666 0
M  V30 7 C -4.10706 -1.4008 0.303174 0
M  V30 8 C -3.93721 -0.21465 1.2051 0
M  V30 9 C -2.53316 0.388674 1.06345 0
M  V30 10 N 0.325211 0.659016 -0.0504972 0
M  V30 11 C 1.51426 0.185953 -0.648795 0
M  V30 12 O 1.49537 -0.0716655 -1.87362 0
M  V30 13 C 2.74875 -0.0145009 0.0833663 0
M  V30 14 N 2.89568 0.224212 1.39285 0
M  V30 15 C 4.07701 0.0202208 2.03694 0
M  V30 16 O 4.11176 0.277555 3.28174 0
M  V30 17 N 5.16943 -0.432871 1.40146 0
M  V30 18 C 5.05879 -0.682008 0.0923879 0
M  V30 19 O 6.07117 -1.10699 -0.52024 0
M  V30 20 C 3.87683 -0.483711 -0.579057 0
M  V30 21 N 3.76476 -0.754676 -1.99192 0
M  V30 22 H 0.691708 2.80128 -0.889938 0
M  V30 23 H -0.400325 4.10712 -1.0828 0
M  V30 24 H -2.09322 2.38951 -1.64581 0
M  V30 25 H -1.60154 2.73826 0.0985571 0
M  V30 26 H -0.676314 0.561802 -1.85548 0
M  V30 27 H -2.8673 0.0875644 -1.01114 0
M  V30 28 H -0.862913 -1.63544 0.55782 0
M  V30 29 H -1.34965 -1.78847 -1.21356 0
M  V30 30 H -2.72816 -2.69624 1.25101 0
M  V30 31 H -3.03397 -3.081 -0.451824 0
M  V30 32 H -4.50181 -1.13057 -0.698833 0
M  V30 33 H -4.90598 -2.04228 0.765692 0
M  V30 34 H -4.08243 -0.50177 2.26711 0
M  V30 35 H -4.64807 0.562926 0.863847 0
M  V30 36 H -2.62198 1.44828 1.27619 0
M  V30 37 H -1.87581 -0.136967 1.81451 0
M  V30 38 H 0.344266 0.872219 0.967738 0
M  V30 39 H 2.0915 0.57167 1.92547 0
M  V30 40 H 6.08536 -0.590047 1.90544 0
M  V30 41 H 3.34988 -1.64162 -2.33058 0
M  V30 42 H 4.09284 -0.0763469 -2.69465 0
M  V30 END ATOM
M  V30 BEGIN BOND
M  V30 1 1 1 2
M  V30 2 1 2 3
M  V30 3 1 3 4
M  V30 4 1 4 5
M  V30 5 1 5 6
M  V30 6 1 6 7
M  V30 7 1 7 8
M  V30 8 1 8 9
M  V30 9 1 3 10
M  V30 10 1 10 11
M  V30 11 2 11 12
M  V30 12 1 11 13
M  V30 13 1 13 14
M  V30 14 1 14 15
M  V30 15 2 15 16
M  V30 16 1 15 17
M  V30 17 1 17 18
M  V30 18 2 18 19
M  V30 19 1 18 20
M  V30 20 1 20 21
M  V30 21 1 9 4
M  V30 22 2 20 13
M  V30 23 1 1 22
M  V30 24 1 1 23
M  V30 25 1 2 24
M  V30 26 1 2 25
M  V30 27 1 3 26
M  V30 28 1 4 27
M  V30 29 1 5 28
M  V30 30 1 5 29
M  V30 31 1 6 30
M  V30 32 1 6 31
M  V30 33 1 7 32
M  V30 34 1 7 33
M  V30 35 1 8 34
M  V30 36 1 8 35
M  V30 37 1 9 36
M  V30 38 1 9 37
M  V30 39 1 10 38
M  V30 40 1 14 39
M  V30 41 1 17 40
M  V30 42 1 21 41
M  V30 43 1 21 42
M  V30 END BOND
M  V30 END CTAB
M  END
