
     RDKit          3D

  0  0  0  0  0  0  0  0  0  0999 V3000
M  V30 BEGIN CTAB
M  V30 COUNTS 39 40 0 0 0
M  V30 BEGIN ATOM
M  V30 1 N -6.2843 -1.23516 0.65233 0
M  V30 2 C -5.57075 -0.212017 1.31768 0
M  V30 3 N -5.45426 -0.19328 2.58962 0
M  V30 4 N -4.97053 0.817306 0.554253 0
M  V30 5 C -3.75066 0.529384 -0.150565 0
M  V30 6 C -3.17733 -0.718608 -0.085918 0
M  V30 7 C -2.00722 -0.986235 -0.765021 0
M  V30 8 C -1.39406 -0.0154879 -1.51619 0
M  V30 9 C -1.96584 1.23446 -1.58257 0
M  V30 10 C -3.13271 1.49495 -0.903065 0
M  V30 11 S 0.08981 -0.381354 -2.36797 0
M  V30 12 O 0.0506275 -1.77715 -2.8667 0
M  V30 13 O 0.166664 0.525736 -3.58527 0
M  V30 14 C 1.4968 -0.0540671 -1.38315 0
M  V30 15 C 2.05049 -1.00892 -0.561732 0
M  V30 16 C 3.16907 -0.737123 0.216572 0
M  V30 17 C 3.76345 0.525875 0.182292 0
M  V30 18 N 4.90354 0.817328 0.969776 0
M  V30 19 C 5.48822 -0.138702 1.81617 0
M  V30 20 N 6.15285 -1.24436 1.23656 0
M  V30 21 N 5.44467 -0.051067 3.09294 0
M  V30 22 C 3.1706 1.44291 -0.655042 0
M  V30 23 C 2.06764 1.19095 -1.4289 0
M  V30 24 H -6.35906 -2.22341 1.03742 0
M  V30 25 H -6.78291 -1.08989 -0.256666 0
M  V30 26 H -4.94663 0.527428 3.11933 0
M  V30 27 H -5.41885 1.73609 0.524045 0
M  V30 28 H -3.69387 -1.46675 0.52211 0
M  V30 29 H -1.55919 -1.96531 -0.713143 0
M  V30 30 H -1.51878 2.03477 -2.16318 0
M  V30 31 H -3.56838 2.47093 -0.96203 0
M  V30 32 H 1.60228 -1.9907 -0.52413 0
M  V30 33 H 3.59789 -1.49381 0.859613 0
M  V30 34 H 5.31803 1.76451 0.919329 0
M  V30 35 H 6.7259 -1.05415 0.384449 0
M  V30 36 H 6.069 -2.21073 1.65046 0
M  V30 37 H 4.97376 0.733577 3.60565 0
M  V30 38 H 3.60685 2.43951 -0.708067 0
M  V30 39 H 1.6472 1.96259 -2.07129 0
M  V30 END ATOM
M  V30 BEGIN BOND
M  V30 1 1 1 2
M  V30 2 2 2 3 CFG=2
M  V30 3 1 2 4
M  V30 4 1 4 5
M  V30 5 2 5 6
M  V30 6 1 6 7
M  V30 7 2 7 8
M  V30 8 1 8 9
M  V30 9 2 9 10
M  V30 10 1 8 11
M  V30 11 2 11 12
M  V30 12 2 11 13
M  V30 13 1 11 14
M  V30 14 2 14 15
M  V30 15 1 15 16
M  V30 16 2 16 17
M  V30 17 1 17 18
M  V30 18 1 18 19
M  V30 19 1 19 20
M  V30 20 2 19 21 CFG=2
M  V30 21 1 17 22
M  V30 22 2 22 23
M  V30 23 1 10 5
M  V30 24 1 23 14
M  V30 25 1 1 24
M  V30 26 1 1 25
M  V30 27 1 3 26
M  V30 28 1 4 27
M  V30 29 1 6 28
M  V30 30 1 7 29
M  V30 31 1 9 30
M  V30 32 1 10 31
M  V30 33 1 15 32
M  V30 34 1 16 33
M  V30 35 1 18 34
M  V30 36 1 20 35
M  V30 37 1 20 36
M  V30 38 1 21 37
M  V30 39 1 22 38
M  V30 40 1 23 39
M  V30 END BOND
M  V30 END CTAB
M  END
