
     RDKit          3D

  0  0  0  0  0  0  0  0  0  0999 V3000
M  V30 BEGIN CTAB
M  V30 COUNTS 48 47 0 0 0
M  V30 BEGIN ATOM
M  V30 1 N 0.95593 2.55248 -1.4735 0
M  V30 2 C 1.84955 2.93311 -0.446185 0
M  V30 3 C 1.78647 2.10805 0.820908 0
M  V30 4 N 2.03131 0.718218 0.624139 0
M  V30 5 C 1.10118 -0.286917 0.406132 0
M  V30 6 O 1.75459 -1.46282 0.203736 0
M  V30 7 N -0.254119 -0.489136 0.328193 0
M  V30 8 C -1.34753 0.348043 0.51069 0
M  V30 9 O -1.38204 1.55396 0.801015 0
M  V30 10 O -2.66376 -0.183535 0.358925 0
M  V30 11 C -3.79566 0.664535 0.543181 0
M  V30 12 C -3.81558 1.2371 1.92786 0
M  V30 13 C -3.92213 1.69249 -0.541216 0
M  V30 14 C -5.01025 -0.256327 0.425303 0
M  V30 15 C -0.651943 -1.91542 -0.00540747 0
M  V30 16 C -0.760997 -2.08313 -1.48183 0
M  V30 17 N -1.13792 -3.43964 -1.76781 0
M  V30 18 C 3.47139 0.376517 0.666873 0
M  V30 19 O 4.30748 1.27805 0.858854 0
M  V30 20 O 3.90212 -0.908224 0.500098 0
M  V30 21 C 5.29442 -1.1869 0.549472 0
M  V30 22 C 5.49394 -2.67803 0.336109 0
M  V30 23 H 1.40841 2.08154 -2.30017 0
M  V30 24 H 0.239401 3.24584 -1.73034 0
M  V30 25 H 2.9103 3.03343 -0.779752 0
M  V30 26 H 1.5387 3.97634 -0.124604 0
M  V30 27 H 0.923153 2.39225 1.39972 0
M  V30 28 H 2.65348 2.5369 1.47257 0
M  V30 29 H -3.12682 0.629518 2.54982 0
M  V30 30 H -3.42649 2.28976 1.97172 0
M  V30 31 H -4.81362 1.16929 2.4072 0
M  V30 32 H -3.26102 2.55235 -0.442877 0
M  V30 33 H -3.79263 1.16838 -1.51075 0
M  V30 34 H -4.97519 2.08471 -0.494716 0
M  V30 35 H -5.95439 0.274267 0.585538 0
M  V30 36 H -4.89578 -1.01477 1.23708 0
M  V30 37 H -4.99242 -0.823559 -0.522907 0
M  V30 38 H -1.63336 -2.05263 0.458671 0
M  V30 39 H 0.0983354 -2.59487 0.395528 0
M  V30 40 H -1.5658 -1.43096 -1.92024 0
M  V30 41 H 0.166694 -1.78547 -2.02547 0
M  V30 42 H -2.16896 -3.58478 -1.68169 0
M  V30 43 H -0.682724 -4.07055 -1.06149 0
M  V30 44 H 5.65371 -0.864781 1.54244 0
M  V30 45 H 5.86672 -0.597599 -0.197007 0
M  V30 46 H 4.56341 -3.17788 0.0316393 0
M  V30 47 H 6.25029 -2.86706 -0.46029 0
M  V30 48 H 5.81019 -3.14215 1.29954 0
M  V30 END ATOM
M  V30 BEGIN BOND
M  V30 1 1 1 2
M  V30 2 1 2 3
M  V30 3 1 3 4
M  V30 4 1 4 5
M  V30 5 2 5 6
M  V30 6 1 5 7
M  V30 7 1 7 8
M  V30 8 2 8 9
M  V30 9 1 8 10
M  V30 10 1 10 11
M  V30 11 1 11 12
M  V30 12 1 11 13
M  V30 13 1 11 14
M  V30 14 1 7 15
M  V30 15 1 15 16
M  V30 16 1 16 17
M  V30 17 1 4 18
M  V30 18 2 18 19
M  V30 19 1 18 20
M  V30 20 1 20 21
M  V30 21 1 21 22
M  V30 22 1 1 23
M  V30 23 1 1 24
M  V30 24 1 2 25
M  V30 25 1 2 26
M  V30 26 1 3 27
M  V30 27 1 3 28
M  V30 28 1 12 29
M  V30 29 1 12 30
M  V30 30 1 12 31
M  V30 31 1 13 32
M  V30 32 1 13 33
M  V30 33 1 13 34
M  V30 34 1 14 35
M  V30 35 1 14 36
M  V30 36 1 14 37
M  V30 37 1 15 38
M  V30 38 1 15 39
M  V30 39 1 16 40
M  V30 40 1 16 41
M  V30 41 1 17 42
M  V30 42 1 17 43
M  V30 43 1 21 44
M  V30 44 1 21 45
M  V30 45 1 22 46
M  V30 46 1 22 47
M  V30 47 1 22 48
M  V30 END BOND
M  V30 END CTAB
M  END
