
     RDKit          3D

  0  0  0  0  0  0  0  0  0  0999 V3000
M  V30 BEGIN CTAB
M  V30 COUNTS 24 24 0 0 0
M  V30 BEGIN ATOM
M  V30 1 C 2.63989 -0.392241 -0.645401 0
M  V30 2 C 2.33364 0.2567 0.68439 0
M  V30 3 C 1.01017 0.952444 0.693297 0
M  V30 4 C -0.145531 0.0727539 0.422494 0
M  V30 5 N -1.2902 0.713429 0.079592 0
M  V30 6 C -2.44251 0.0812359 -0.199956 0
M  V30 7 N -3.63239 0.769342 -0.557487 0
M  V30 8 C -2.41926 -1.30709 -0.122302 0
M  V30 9 C -1.24499 -1.94315 0.228422 0
M  V30 10 O -1.1931 -3.20954 0.307561 0
M  V30 11 N -0.115003 -1.26755 0.499732 0
M  V30 12 N 1.10639 2.01773 -0.317465 0
M  V30 13 H 3.19494 -1.34464 -0.398527 0
M  V30 14 H 3.33488 0.217599 -1.22073 0
M  V30 15 H 1.72134 -0.654179 -1.21817 0
M  V30 16 H 2.43736 -0.45785 1.53016 0
M  V30 17 H 3.11128 1.03008 0.85367 0
M  V30 18 H 0.848096 1.41743 1.68458 0
M  V30 19 H -3.55171 1.62191 -1.15128 0
M  V30 20 H -4.59731 0.496907 -0.276672 0
M  V30 21 H -3.32847 -1.85616 -0.340303 0
M  V30 22 H 0.793424 -1.69638 0.769176 0
M  V30 23 H 0.522521 2.83733 -0.0454259 0
M  V30 24 H 0.906543 1.64389 -1.25935 0
M  V30 END ATOM
M  V30 BEGIN BOND
M  V30 1 1 1 2
M  V30 2 1 2 3
M  V30 3 1 3 4
M  V30 4 2 4 5
M  V30 5 1 5 6
M  V30 6 1 6 7
M  V30 7 2 6 8
M  V30 8 1 8 9
M  V30 9 2 9 10
M  V30 10 1 9 11
M  V30 11 1 3 12
M  V30 12 1 11 4
M  V30 13 1 1 13
M  V30 14 1 1 14
M  V30 15 1 1 15
M  V30 16 1 2 16
M  V30 17 1 2 17
M  V30 18 1 3 18
M  V30 19 1 7 19
M  V30 20 1 7 20
M  V30 21 1 8 21
M  V30 22 1 11 22
M  V30 23 1 12 23
M  V30 24 1 12 24
M  V30 END BOND
M  V30 END CTAB
M  END
