
     RDKit          3D

  0  0  0  0  0  0  0  0  0  0999 V3000
M  V30 BEGIN CTAB
M  V30 COUNTS 31 32 0 0 0
M  V30 BEGIN ATOM
M  V30 1 N 3.57832 -1.28784 -1.92723 0
M  V30 2 C 2.9825 -0.780941 -0.751329 0
M  V30 3 N 3.68855 -0.781345 0.379246 0
M  V30 4 C 3.15351 -0.305913 1.5203 0
M  V30 5 C 1.846 0.192879 1.5208 0
M  V30 6 C 1.08389 0.210345 0.372084 0
M  V30 7 C 1.68107 -0.288146 -0.766284 0
M  V30 8 C -0.275699 0.721307 0.32753 0 CFG=1
M  V30 9 C -0.320353 2.13682 -0.272982 0
M  V30 10 O -1.50677 2.75491 0.121471 0
M  V30 11 C -2.57748 1.86615 0.119699 0
M  V30 12 C -2.32746 0.717485 -0.855597 0
M  V30 13 N -1.23985 -0.03843 -0.34103 0
M  V30 14 S -1.49945 -1.63151 0.0244708 0
M  V30 15 O -2.63463 -2.14685 -0.857226 0
M  V30 16 O -0.349621 -2.5619 -0.240127 0
M  V30 17 N -2.02345 -1.92941 1.65543 0
M  V30 18 H 3.33478 -0.85739 -2.83452 0
M  V30 19 H 4.24405 -2.07073 -1.89508 0
M  V30 20 H 3.77474 -0.332855 2.40324 0
M  V30 21 H 1.46497 0.561174 2.45832 0
M  V30 22 H 1.18337 -0.327292 -1.72905 0
M  V30 23 H -0.647383 0.883891 1.38631 0
M  V30 24 H -0.394198 2.00608 -1.37075 0
M  V30 25 H 0.570588 2.7074 0.0191468 0
M  V30 26 H -3.45483 2.42308 -0.259987 0
M  V30 27 H -2.79562 1.4855 1.11626 0
M  V30 28 H -2.13024 1.07254 -1.86367 0
M  V30 29 H -3.25054 0.0852712 -0.870367 0
M  V30 30 H -2.97669 -1.50623 1.7808 0
M  V30 31 H -2.18208 -2.97803 1.70285 0
M  V30 END ATOM
M  V30 BEGIN BOND
M  V30 1 1 1 2
M  V30 2 2 2 3
M  V30 3 1 3 4
M  V30 4 2 4 5
M  V30 5 1 5 6
M  V30 6 2 6 7
M  V30 7 1 6 8
M  V30 8 1 8 9
M  V30 9 1 9 10
M  V30 10 1 10 11
M  V30 11 1 11 12
M  V30 12 1 12 13
M  V30 13 1 13 14
M  V30 14 2 14 15
M  V30 15 2 14 16
M  V30 16 1 14 17
M  V30 17 1 7 2
M  V30 18 1 13 8
M  V30 19 1 1 18
M  V30 20 1 1 19
M  V30 21 1 4 20
M  V30 22 1 5 21
M  V30 23 1 7 22
M  V30 24 1 8 23 CFG=1
M  V30 25 1 9 24
M  V30 26 1 9 25
M  V30 27 1 11 26
M  V30 28 1 11 27
M  V30 29 1 12 28
M  V30 30 1 12 29
M  V30 31 1 17 30
M  V30 32 1 17 31
M  V30 END BOND
M  V30 END CTAB
M  END
