
     RDKit          3D

  0  0  0  0  0  0  0  0  0  0999 V3000
M  V30 BEGIN CTAB
M  V30 COUNTS 52 55 0 0 0
M  V30 BEGIN ATOM
M  V30 1 N 6.8921 2.4488 2.80316 0
M  V30 2 C 6.03716 1.63312 1.98074 0
M  V30 3 C 4.75894 2.10824 1.71183 0
M  V30 4 C 3.96265 1.30508 0.928684 0
M  V30 5 C 4.37657 0.0812526 0.417599 0
M  V30 6 C 5.64478 -0.339614 0.713158 0
M  V30 7 C 6.50899 0.428382 1.50448 0
M  V30 8 C 3.43515 -0.706238 -0.411331 0
M  V30 9 O 3.81337 -1.80139 -0.873752 0
M  V30 10 O 2.17954 -0.282847 -0.686437 0
M  V30 11 C 1.19023 -0.879321 -1.42575 0
M  V30 12 C 1.29197 -0.897462 -2.82081 0
M  V30 13 C 0.339157 -1.46554 -3.6435 0
M  V30 14 C -0.772432 -2.04869 -3.08133 0
M  V30 15 C -0.893242 -2.0437 -1.71796 0
M  V30 16 C 0.0654489 -1.47128 -0.882759 0
M  V30 17 C -0.0600489 -1.53036 0.566965 0
M  V30 18 C 0.803576 -2.25363 1.35507 0
M  V30 19 C 0.643957 -2.34522 2.72685 0
M  V30 20 C -0.396574 -1.70957 3.35843 0
M  V30 21 C -1.26031 -0.983045 2.53716 0
M  V30 22 C -1.108 -0.886222 1.17371 0
M  V30 23 O -2.0394 -0.123589 0.467182 0
M  V30 24 C -3.38149 -0.460172 0.299466 0
M  V30 25 O -3.76662 -1.5308 0.828503 0
M  V30 26 C -4.2811 0.414421 -0.463369 0
M  V30 27 C -3.86058 1.56399 -1.07044 0
M  V30 28 C -4.72508 2.39688 -1.77432 0
M  V30 29 C -6.05389 2.04522 -1.85861 0
M  V30 30 C -6.50351 0.894726 -1.25728 0
M  V30 31 C -5.60575 0.0786229 -0.557073 0
M  V30 32 N -6.93286 2.90528 -2.57997 0
M  V30 33 H 6.62967 2.6205 3.80684 0
M  V30 34 H 7.74169 2.82959 2.33736 0
M  V30 35 H 4.48351 3.05597 2.13063 0
M  V30 36 H 2.97068 1.63406 0.693531 0
M  V30 37 H 6.01787 -1.27128 0.347904 0
M  V30 38 H 7.50554 0.0752905 1.72569 0
M  V30 39 H 2.18097 -0.428873 -3.2335 0
M  V30 40 H 0.436618 -1.46734 -4.7241 0
M  V30 41 H -1.51694 -2.4905 -3.73512 0
M  V30 42 H -1.77222 -2.52382 -1.28315 0
M  V30 43 H 1.63373 -2.78663 0.91972 0
M  V30 44 H 1.31634 -2.91512 3.36875 0
M  V30 45 H -0.55762 -1.75684 4.43217 0
M  V30 46 H -2.08678 -0.47284 3.0065 0
M  V30 47 H -2.81841 1.83137 -1.00202 0
M  V30 48 H -4.39844 3.30977 -2.25397 0
M  V30 49 H -7.5452 0.645259 -1.33652 0
M  V30 50 H -6.00936 -0.817307 -0.0987829 0
M  V30 51 H -6.58555 3.43284 -3.39201 0
M  V30 52 H -7.9288 2.95058 -2.22012 0
M  V30 END ATOM
M  V30 BEGIN BOND
M  V30 1 1 1 2
M  V30 2 2 2 3
M  V30 3 1 3 4
M  V30 4 2 4 5
M  V30 5 1 5 6
M  V30 6 2 6 7
M  V30 7 1 5 8
M  V30 8 2 8 9
M  V30 9 1 8 10
M  V30 10 1 10 11
M  V30 11 2 11 12
M  V30 12 1 12 13
M  V30 13 2 13 14
M  V30 14 1 14 15
M  V30 15 2 15 16
M  V30 16 1 16 17
M  V30 17 2 17 18
M  V30 18 1 18 19
M  V30 19 2 19 20
M  V30 20 1 20 21
M  V30 21 2 21 22
M  V30 22 1 22 23
M  V30 23 1 23 24
M  V30 24 2 24 25
M  V30 25 1 24 26
M  V30 26 2 26 27
M  V30 27 1 27 28
M  V30 28 2 28 29
M  V30 29 1 29 30
M  V30 30 2 30 31
M  V30 31 1 29 32
M  V30 32 1 7 2
M  V30 33 1 16 11
M  V30 34 1 22 17
M  V30 35 1 31 26
M  V30 36 1 1 33
M  V30 37 1 1 34
M  V30 38 1 3 35
M  V30 39 1 4 36
M  V30 40 1 6 37
M  V30 41 1 7 38
M  V30 42 1 12 39
M  V30 43 1 13 40
M  V30 44 1 14 41
M  V30 45 1 15 42
M  V30 46 1 18 43
M  V30 47 1 19 44
M  V30 48 1 20 45
M  V30 49 1 21 46
M  V30 50 1 27 47
M  V30 51 1 28 48
M  V30 52 1 30 49
M  V30 53 1 31 50
M  V30 54 1 32 51
M  V30 55 1 32 52
M  V30 END BOND
M  V30 END CTAB
M  END
