
     RDKit          3D

  0  0  0  0  0  0  0  0  0  0999 V3000
M  V30 BEGIN CTAB
M  V30 COUNTS 46 47 0 0 0
M  V30 BEGIN ATOM
M  V30 1 N -4.36876 -2.31956 0.133126 0
M  V30 2 C -3.59018 -1.42294 -0.702903 0
M  V30 3 C -2.77639 -0.452924 0.181166 0
M  V30 4 C -3.83382 0.291676 0.971733 0
M  V30 5 C -3.38217 1.65203 1.39227 0
M  V30 6 C -3.14995 2.42599 0.113621 0
M  V30 7 C -2.22705 1.78767 -0.842941 0
M  V30 8 C -1.82899 0.362571 -0.580695 0
M  V30 9 N -0.464423 0.270747 -0.224871 0
M  V30 10 C 0.310327 -0.87183 -0.391776 0
M  V30 11 C 1.78081 -0.554106 -0.287825 0
M  V30 12 C 2.31656 0.441335 -1.06539 0
M  V30 13 C 3.66048 0.728799 -0.965888 0
M  V30 14 C 4.50853 0.0626867 -0.117198 0
M  V30 15 C 3.95691 -0.938343 0.662872 0
M  V30 16 C 2.57886 -1.24524 0.572862 0
M  V30 17 S 6.19407 0.478329 -0.0587886 0
M  V30 18 O 6.99574 -0.778659 0.185525 0
M  V30 19 O 6.61449 1.04085 -1.41085 0
M  V30 20 N 6.40336 1.6454 1.19456 0
M  V30 21 C 0.0154283 -2.12344 0.335488 0
M  V30 22 H -3.85215 -2.34654 1.06452 0
M  V30 23 H -4.2525 -3.32064 -0.220765 0
M  V30 24 H -4.27167 -0.886088 -1.37589 0
M  V30 25 H -2.86459 -2.03592 -1.27395 0
M  V30 26 H -2.27521 -1.08809 0.934716 0
M  V30 27 H -4.17284 -0.305586 1.84133 0
M  V30 28 H -4.70735 0.44015 0.293102 0
M  V30 29 H -2.55411 1.68536 2.09927 0
M  V30 30 H -4.2808 2.15396 1.86339 0
M  V30 31 H -4.17649 2.53237 -0.353754 0
M  V30 32 H -2.86474 3.46593 0.372569 0
M  V30 33 H -1.27508 2.40026 -0.826484 0
M  V30 34 H -2.63599 1.94377 -1.87326 0
M  V30 35 H -1.86299 -0.0929493 -1.64901 0
M  V30 36 H -0.179831 0.768643 0.65402 0
M  V30 37 H 0.209695 -1.17203 -1.51169 0
M  V30 38 H 1.65205 0.965561 -1.73516 0
M  V30 39 H 4.05621 1.52343 -1.59301 0
M  V30 40 H 4.60076 -1.48024 1.33736 0
M  V30 41 H 2.21369 -2.02222 1.21691 0
M  V30 42 H 7.22129 1.34606 1.76451 0
M  V30 43 H 6.53995 2.57705 0.786668 0
M  V30 44 H 0.877584 -2.83604 0.0992071 0
M  V30 45 H 0.0134233 -2.03409 1.43294 0
M  V30 46 H -0.872148 -2.66316 -0.0820444 0
M  V30 END ATOM
M  V30 BEGIN BOND
M  V30 1 1 1 2
M  V30 2 1 2 3
M  V30 3 1 3 4
M  V30 4 1 4 5
M  V30 5 1 5 6
M  V30 6 1 6 7
M  V30 7 1 7 8
M  V30 8 1 8 9
M  V30 9 1 9 10
M  V30 10 1 10 11
M  V30 11 2 11 12
M  V30 12 1 12 13
M  V30 13 2 13 14
M  V30 14 1 14 15
M  V30 15 2 15 16
M  V30 16 1 14 17
M  V30 17 2 17 18
M  V30 18 2 17 19
M  V30 19 1 17 20
M  V30 20 1 10 21
M  V30 21 1 8 3
M  V30 22 1 16 11
M  V30 23 1 1 22
M  V30 24 1 1 23
M  V30 25 1 2 24
M  V30 26 1 2 25
M  V30 27 1 3 26
M  V30 28 1 4 27
M  V30 29 1 4 28
M  V30 30 1 5 29
M  V30 31 1 5 30
M  V30 32 1 6 31
M  V30 33 1 6 32
M  V30 34 1 7 33
M  V30 35 1 7 34
M  V30 36 1 8 35
M  V30 37 1 9 36
M  V30 38 1 10 37
M  V30 39 1 12 38
M  V30 40 1 13 39
M  V30 41 1 15 40
M  V30 42 1 16 41
M  V30 43 1 20 42
M  V30 44 1 20 43
M  V30 45 1 21 44
M  V30 46 1 21 45
M  V30 47 1 21 46
M  V30 END BOND
M  V30 END CTAB
M  END
