
     RDKit          3D

  0  0  0  0  0  0  0  0  0  0999 V3000
M  V30 BEGIN CTAB
M  V30 COUNTS 34 35 0 0 0
M  V30 BEGIN ATOM
M  V30 1 N 4.97365 -0.550456 -0.740754 0
M  V30 2 C 3.56494 -0.370078 -1.10737 0
M  V30 3 C 2.82438 -1.57293 -0.646336 0
M  V30 4 C 1.3277 -1.43028 -0.697248 0
M  V30 5 C 0.852775 -0.0728904 -0.246118 0
M  V30 6 C 1.60023 1.05374 -0.923199 0
M  V30 7 C 3.05528 0.917591 -0.52054 0
M  V30 8 N -0.561775 0.0144931 -0.542305 0
M  V30 9 C -1.49124 0.192518 0.503533 0
M  V30 10 O -1.0697 0.272335 1.68054 0
M  V30 11 C -2.91903 0.286053 0.25949 0
M  V30 12 N -3.4687 0.212811 -0.958468 0
M  V30 13 C -4.80411 0.306668 -1.12129 0
M  V30 14 C -5.66705 0.48082 -0.0588619 0
M  V30 15 N -5.11273 0.5543 1.16545 0
M  V30 16 C -3.76763 0.459574 1.32755 0
M  V30 17 N -3.2351 0.54384 2.64472 0
M  V30 18 H 5.01546 -0.607443 0.289697 0
M  V30 19 H 5.57328 0.210582 -1.08111 0
M  V30 20 H 3.55904 -0.239279 -2.22333 0
M  V30 21 H 3.09496 -2.42984 -1.30222 0
M  V30 22 H 3.19198 -1.8445 0.368404 0
M  V30 23 H 0.919764 -1.68966 -1.69689 0
M  V30 24 H 0.900899 -2.17332 0.0116864 0
M  V30 25 H 1.06004 0.0156436 0.839124 0
M  V30 26 H 1.52867 1.00352 -2.01597 0
M  V30 27 H 1.22112 1.99694 -0.489696 0
M  V30 28 H 3.66426 1.7518 -0.908259 0
M  V30 29 H 3.11113 0.868597 0.588679 0
M  V30 30 H -0.876322 -0.0553378 -1.52629 0
M  V30 31 H -5.25661 0.246933 -2.11824 0
M  V30 32 H -6.73903 0.553639 -0.215501 0
M  V30 33 H -3.06782 1.43509 3.12563 0
M  V30 34 H -3.00269 -0.341477 3.14798 0
M  V30 END ATOM
M  V30 BEGIN BOND
M  V30 1 1 1 2
M  V30 2 1 2 3
M  V30 3 1 3 4
M  V30 4 1 4 5
M  V30 5 1 5 6
M  V30 6 1 6 7
M  V30 7 1 5 8
M  V30 8 1 8 9
M  V30 9 2 9 10
M  V30 10 1 9 11
M  V30 11 2 11 12
M  V30 12 1 12 13
M  V30 13 2 13 14
M  V30 14 1 14 15
M  V30 15 2 15 16
M  V30 16 1 16 17
M  V30 17 1 7 2
M  V30 18 1 16 11
M  V30 19 1 1 18
M  V30 20 1 1 19
M  V30 21 1 2 20
M  V30 22 1 3 21
M  V30 23 1 3 22
M  V30 24 1 4 23
M  V30 25 1 4 24
M  V30 26 1 5 25
M  V30 27 1 6 26
M  V30 28 1 6 27
M  V30 29 1 7 28
M  V30 30 1 7 29
M  V30 31 1 8 30
M  V30 32 1 13 31
M  V30 33 1 14 32
M  V30 34 1 17 33
M  V30 35 1 17 34
M  V30 END BOND
M  V30 END CTAB
M  END
