
     RDKit          3D

  0  0  0  0  0  0  0  0  0  0999 V3000
M  V30 BEGIN CTAB
M  V30 COUNTS 65 68 0 0 0
M  V30 BEGIN ATOM
M  V30 1 N -7.32612 2.60974 -1.19419 0
M  V30 2 C -6.95146 2.63866 0.149634 0
M  V30 3 C -7.0865 1.39179 0.941528 0
M  V30 4 C -6.33035 0.237461 0.464929 0
M  V30 5 C -6.99609 -0.909285 0.0793647 0
M  V30 6 C -6.2689 -2.00032 -0.447175 0
M  V30 7 C -4.94749 -1.94944 -0.586599 0
M  V30 8 C -4.18952 -0.784932 -0.215627 0
M  V30 9 C -4.93436 0.222526 0.285965 0
M  V30 10 C -2.8535 -0.777967 -0.783662 0
M  V30 11 N -1.64704 -0.871209 -0.245476 0
M  V30 12 C -0.680682 -1.22701 -1.35907 0
M  V30 13 C 0.456728 -1.8835 -0.656605 0
M  V30 14 C 1.34314 -0.733174 -0.109915 0
M  V30 15 C 0.369253 0.383137 0.234789 0
M  V30 16 C -0.983797 -0.165718 0.718014 0
M  V30 17 O 2.02157 -0.361373 -1.25306 0
M  V30 18 C 3.29958 -0.04191 -1.14585 0
M  V30 19 C 3.76711 0.244666 0.291147 0 CFG=1
M  V30 20 C 3.54718 -0.948894 1.08125 0 CFG=1
M  V30 21 C 2.06619 -1.27271 1.03434 0
M  V30 22 C 4.26556 -2.22512 0.696581 0
M  V30 23 O 3.88113 -0.703583 2.4377 0
M  V30 24 N 5.01884 0.880856 0.186968 0
M  V30 25 C 6.13062 0.25871 -0.210184 0
M  V30 26 C 7.37198 0.823259 -0.35768 0
M  V30 27 C 7.49688 2.20928 -0.0762818 0
M  V30 28 N 6.38834 2.80235 0.321724 0
M  V30 29 C 5.22928 2.22552 0.457913 0
M  V30 30 O 4.22742 2.88453 0.827187 0
M  V30 31 N 8.71692 2.83308 -0.269177 0
M  V30 32 O -4.19606 -3.05378 -1.0733 0
M  V30 33 H -6.57112 2.5544 -1.8329 0
M  V30 34 H -8.19919 2.97983 -1.47142 0
M  V30 35 H -5.88165 3.03456 0.17089 0
M  V30 36 H -7.51183 3.49807 0.670169 0
M  V30 37 H -8.20109 1.08341 0.757258 0
M  V30 38 H -7.04908 1.58393 1.98924 0
M  V30 39 H -8.06399 -1.03823 0.127865 0
M  V30 40 H -6.82375 -2.88597 -0.698929 0
M  V30 41 H -4.43681 1.16604 0.601264 0
M  V30 42 H -2.79135 0.466958 -1.1009 0
M  V30 43 H -2.92279 -1.14527 -1.87936 0
M  V30 44 H -1.20147 -1.99082 -1.98535 0
M  V30 45 H -0.459443 -0.315713 -1.88361 0
M  V30 46 H 1.0894 -2.45618 -1.40738 0
M  V30 47 H 0.142775 -2.56544 0.125178 0
M  V30 48 H 0.17188 1.05305 -0.632351 0
M  V30 49 H 0.693682 1.03906 1.04788 0
M  V30 50 H -0.709307 -0.758094 1.63657 0
M  V30 51 H -1.57561 0.667127 1.09048 0
M  V30 52 H 3.47619 0.931632 -1.71054 0
M  V30 53 H 3.95806 -0.766829 -1.65376 0
M  V30 54 H 2.98137 1.01359 0.622735 0
M  V30 55 H 1.62688 -0.836234 1.98253 0
M  V30 56 H 1.96749 -2.37844 1.17087 0
M  V30 57 H 5.26774 -2.34156 1.16893 0
M  V30 58 H 4.26413 -2.44097 -0.385042 0
M  V30 59 H 3.67219 -3.0699 1.17416 0
M  V30 60 H 3.41234 -1.34591 2.98663 0
M  V30 61 H 6.0703 -0.801838 -0.460764 0
M  V30 62 H 8.2783 0.30437 -0.651313 0
M  V30 63 H 8.8277 3.55639 -0.968178 0
M  V30 64 H 9.49787 2.5022 0.306178 0
M  V30 65 H -3.20567 -3.03287 -1.01657 0
M  V30 END ATOM
M  V30 BEGIN BOND
M  V30 1 1 1 2
M  V30 2 1 2 3
M  V30 3 1 3 4
M  V30 4 2 4 5
M  V30 5 1 5 6
M  V30 6 2 6 7
M  V30 7 1 7 8
M  V30 8 2 8 9
M  V30 9 1 8 10
M  V30 10 1 10 11
M  V30 11 1 11 12
M  V30 12 1 12 13
M  V30 13 1 13 14
M  V30 14 1 14 15
M  V30 15 1 15 16
M  V30 16 1 14 17
M  V30 17 1 17 18
M  V30 18 1 18 19
M  V30 19 1 19 20
M  V30 20 1 20 21
M  V30 21 1 20 22
M  V30 22 1 20 23 CFG=1
M  V30 23 1 19 24
M  V30 24 1 24 25
M  V30 25 2 25 26
M  V30 26 1 26 27
M  V30 27 2 27 28
M  V30 28 1 28 29
M  V30 29 2 29 30
M  V30 30 1 27 31
M  V30 31 1 7 32
M  V30 32 1 9 4
M  V30 33 1 16 11
M  V30 34 1 29 24
M  V30 35 1 21 14
M  V30 36 1 1 33
M  V30 37 1 1 34
M  V30 38 1 2 35
M  V30 39 1 2 36
M  V30 40 1 3 37
M  V30 41 1 3 38
M  V30 42 1 5 39
M  V30 43 1 6 40
M  V30 44 1 9 41
M  V30 45 1 10 42
M  V30 46 1 10 43
M  V30 47 1 12 44
M  V30 48 1 12 45
M  V30 49 1 13 46
M  V30 50 1 13 47
M  V30 51 1 15 48
M  V30 52 1 15 49
M  V30 53 1 16 50
M  V30 54 1 16 51
M  V30 55 1 18 52
M  V30 56 1 18 53
M  V30 57 1 19 54 CFG=1
M  V30 58 1 21 55
M  V30 59 1 21 56
M  V30 60 1 22 57
M  V30 61 1 22 58
M  V30 62 1 22 59
M  V30 63 1 23 60
M  V30 64 1 25 61
M  V30 65 1 26 62
M  V30 66 1 31 63
M  V30 67 1 31 64
M  V30 68 1 32 65
M  V30 END BOND
M  V30 END CTAB
M  END
