
     RDKit          3D

  0  0  0  0  0  0  0  0  0  0999 V3000
M  V30 BEGIN CTAB
M  V30 COUNTS 73 73 0 0 0
M  V30 BEGIN ATOM
M  V30 1 N -9.79809 -0.49776 -0.665038 0
M  V30 2 C -10.273 0.287053 0.489548 0
M  V30 3 C -9.44892 0.112693 1.72028 0
M  V30 4 C -7.97356 0.435702 1.55422 0
M  V30 5 N -7.36459 -0.434441 0.561736 0
M  V30 6 C -5.97888 -0.154025 0.345854 0
M  V30 7 C -5.20642 -0.547196 1.63512 0
M  V30 8 C -3.7236 -0.388111 1.31272 0
M  V30 9 C -2.84768 -0.825648 2.47694 0
M  V30 10 N -1.46435 -0.598385 2.00527 0
M  V30 11 C -0.964356 -1.31514 0.900568 0
M  V30 12 O -1.71425 -2.24539 0.377904 0
M  V30 13 C 0.323277 -1.08121 0.303459 0
M  V30 14 C 0.84027 -2.27866 -0.528906 0
M  V30 15 O 0.0542013 -3.17432 -0.621913 0
M  V30 16 N 2.07594 -2.04468 -1.0385 0
M  V30 17 C 3.33194 -1.81321 -1.5605 0
M  V30 18 C 3.95339 -0.680361 -0.665736 0
M  V30 19 C 5.21277 -0.180109 -1.27753 0
M  V30 20 C 5.93985 0.653811 -0.20373 0
M  V30 21 C 7.19246 1.18376 -0.928668 0
M  V30 22 C 8.06474 0.00672309 -1.15763 0
M  V30 23 N 8.58947 -0.440684 0.142845 0
M  V30 24 C 9.60615 0.498971 0.639488 0
M  V30 25 N 10.1564 0.317319 1.95992 0
M  V30 26 N 10.0896 1.43732 -0.109275 0
M  V30 27 C 0.106538 0.0349118 -0.75485 0
M  V30 28 C 0.630267 1.2871 -0.595416 0
M  V30 29 C 0.614959 2.29624 -1.5096 0
M  V30 30 C -0.02935 1.96454 -2.76305 0
M  V30 31 C -0.541352 0.765809 -2.95331 0
M  V30 32 C -0.490715 -0.245912 -1.93886 0
M  V30 33 H -9.12389 0.0271343 -1.19469 0
M  V30 34 H -9.56989 -1.44807 -0.423075 0
M  V30 35 H -10.5439 1.31205 0.237369 0
M  V30 36 H -11.2833 -0.222458 0.774744 0
M  V30 37 H -9.53792 -1.00068 1.98378 0
M  V30 38 H -9.80759 0.694995 2.53274 0
M  V30 39 H -7.4638 0.0925457 2.50841 0
M  V30 40 H -7.76087 1.47211 1.30884 0
M  V30 41 H -7.5477 -1.44914 0.72237 0
M  V30 42 H -5.54831 -0.844618 -0.41393 0
M  V30 43 H -5.75632 0.873524 0.110059 0
M  V30 44 H -5.48024 0.255127 2.35665 0
M  V30 45 H -5.52003 -1.46442 2.08538 0
M  V30 46 H -3.52591 0.673925 1.07857 0
M  V30 47 H -3.53609 -0.942435 0.394481 0
M  V30 48 H -2.97482 -1.86945 2.67645 0
M  V30 49 H -3.04653 -0.257817 3.36282 0
M  V30 50 H -0.789804 0.0547601 2.47879 0
M  V30 51 H 1.11445 -0.794752 0.98678 0
M  V30 52 H 2.11684 -3.34067 -1.53963 0
M  V30 53 H 3.28356 -1.4435 -2.63161 0
M  V30 54 H 4.08546 -2.59837 -1.47589 0
M  V30 55 H 4.09217 -1.2122 0.312279 0
M  V30 56 H 3.24547 0.117025 -0.464132 0
M  V30 57 H 4.92184 0.61038 -2.13112 0
M  V30 58 H 5.76849 -0.90809 -1.79361 0
M  V30 59 H 6.16566 -0.0104064 0.612924 0
M  V30 60 H 5.19851 1.47012 0.0409996 0
M  V30 61 H 6.84923 1.72876 -1.85362 0
M  V30 62 H 7.61661 1.93084 -0.218585 0
M  V30 63 H 8.91412 0.280121 -1.86394 0
M  V30 64 H 7.58339 -0.876284 -1.57749 0
M  V30 65 H 8.32084 -1.2274 0.667329 0
M  V30 66 H 9.4208 -0.134929 2.65446 0
M  V30 67 H 11.1018 0.537464 2.24394 0
M  V30 68 H 9.96062 1.734 -1.04839 0
M  V30 69 H 1.11047 1.46737 0.386534 0
M  V30 70 H 1.00824 3.24 -1.41651 0
M  V30 71 H -0.0154483 2.75408 -3.54275 0
M  V30 72 H -1.03412 0.51168 -3.92121 0
M  V30 73 H -0.975285 -1.16507 -2.15988 0
M  V30 END ATOM
M  V30 BEGIN BOND
M  V30 1 1 1 2
M  V30 2 1 2 3
M  V30 3 1 3 4
M  V30 4 1 4 5
M  V30 5 1 5 6
M  V30 6 1 6 7
M  V30 7 1 7 8
M  V30 8 1 8 9
M  V30 9 1 9 10
M  V30 10 1 10 11
M  V30 11 2 11 12
M  V30 12 1 11 13
M  V30 13 1 13 14
M  V30 14 2 14 15
M  V30 15 1 14 16
M  V30 16 1 16 17
M  V30 17 1 17 18
M  V30 18 1 18 19
M  V30 19 1 19 20
M  V30 20 1 20 21
M  V30 21 1 21 22
M  V30 22 1 22 23
M  V30 23 1 23 24
M  V30 24 1 24 25
M  V30 25 2 24 26 CFG=2
M  V30 26 1 13 27
M  V30 27 2 27 28
M  V30 28 1 28 29
M  V30 29 2 29 30
M  V30 30 1 30 31
M  V30 31 2 31 32
M  V30 32 1 32 27
M  V30 33 1 1 33
M  V30 34 1 1 34
M  V30 35 1 2 35
M  V30 36 1 2 36
M  V30 37 1 3 37
M  V30 38 1 3 38
M  V30 39 1 4 39
M  V30 40 1 4 40
M  V30 41 1 5 41
M  V30 42 1 6 42
M  V30 43 1 6 43
M  V30 44 1 7 44
M  V30 45 1 7 45
M  V30 46 1 8 46
M  V30 47 1 8 47
M  V30 48 1 9 48
M  V30 49 1 9 49
M  V30 50 1 10 50
M  V30 51 1 13 51
M  V30 52 1 16 52
M  V30 53 1 17 53
M  V30 54 1 17 54
M  V30 55 1 18 55
M  V30 56 1 18 56
M  V30 57 1 19 57
M  V30 58 1 19 58
M  V30 59 1 20 59
M  V30 60 1 20 60
M  V30 61 1 21 61
M  V30 62 1 21 62
M  V30 63 1 22 63
M  V30 64 1 22 64
M  V30 65 1 23 65
M  V30 66 1 25 66
M  V30 67 1 25 67
M  V30 68 1 26 68
M  V30 69 1 28 69
M  V30 70 1 29 70
M  V30 71 1 30 71
M  V30 72 1 31 72
M  V30 73 1 32 73
M  V30 END BOND
M  V30 END CTAB
M  END
