
     RDKit          3D

  0  0  0  0  0  0  0  0  0  0999 V3000
M  V30 BEGIN CTAB
M  V30 COUNTS 49 50 0 0 0
M  V30 BEGIN ATOM
M  V30 1 C 7.1975 -0.390732 -0.824805 0
M  V30 2 O 6.22326 -0.580939 0.135748 0
M  V30 3 C 5.47386 0.551952 0.328347 0
M  V30 4 C 4.00116 0.387358 0.367648 0
M  V30 5 C 3.35984 -0.17019 -0.825128 0
M  V30 6 O 4.02418 -0.492003 -1.82589 0
M  V30 7 N 1.94833 -0.346159 -0.836574 0
M  V30 8 C 1.28927 -0.895561 -2.00375 0
M  V30 9 C -0.191811 -0.981166 -1.78112 0
M  V30 10 C -0.711599 0.417735 -1.52589 0
M  V30 11 C -2.19241 0.325497 -1.30581 0
M  V30 12 N -2.83422 0.144756 -0.136142 0
M  V30 13 N -4.12217 0.115589 -0.334486 0
M  V30 14 C -4.35582 0.27731 -1.64512 0
M  V30 15 C -3.13892 0.414304 -2.29294 0
M  V30 16 N -5.65712 0.296491 -2.21686 0
M  V30 17 C -5.11158 -0.0578866 0.666163 0
M  V30 18 C -5.85924 -1.21308 0.778383 0
M  V30 19 C -6.8185 -1.36709 1.75746 0
M  V30 20 C -7.07862 -0.371008 2.67552 0
M  V30 21 C -6.335 0.785548 2.5687 0
M  V30 22 C -5.37602 0.939262 1.58976 0
M  V30 23 C 5.85024 1.17892 1.70771 0
M  V30 24 N 5.55489 0.18447 2.7114 0
M  V30 25 H 6.82132 -0.113633 -1.81079 0
M  V30 26 H 7.90179 0.371537 -0.413298 0
M  V30 27 H 7.79837 -1.34581 -0.855408 0
M  V30 28 H 5.78237 1.33374 -0.385554 0
M  V30 29 H 3.58111 1.41588 0.60994 0
M  V30 30 H 3.65389 -0.226317 1.24079 0
M  V30 31 H 1.36348 -0.0796012 0.00886974 0
M  V30 32 H 1.71603 -1.90156 -2.26178 0
M  V30 33 H 1.5049 -0.247088 -2.89577 0
M  V30 34 H -0.340082 -1.54902 -0.820955 0
M  V30 35 H -0.706065 -1.47002 -2.61132 0
M  V30 36 H -0.536797 1.00594 -2.44724 0
M  V30 37 H -0.264537 0.910843 -0.667787 0
M  V30 38 H -2.99362 0.559449 -3.3532 0
M  V30 39 H -6.25862 1.13928 -2.25432 0
M  V30 40 H -6.01637 -0.612927 -2.62349 0
M  V30 41 H -5.653 -2.00018 0.0521523 0
M  V30 42 H -7.39227 -2.27962 1.82723 0
M  V30 43 H -7.82948 -0.478658 3.45001 0
M  V30 44 H -6.54631 1.56719 3.29719 0
M  V30 45 H -4.7989 1.8548 1.51814 0
M  V30 46 H 6.93627 1.35986 1.65724 0
M  V30 47 H 5.257 2.08909 1.79909 0
M  V30 48 H 5.73564 -0.785946 2.3792 0
M  V30 49 H 6.1444 0.329407 3.54817 0
M  V30 END ATOM
M  V30 BEGIN BOND
M  V30 1 1 1 2
M  V30 2 1 2 3
M  V30 3 1 3 4
M  V30 4 1 4 5
M  V30 5 2 5 6
M  V30 6 1 5 7
M  V30 7 1 7 8
M  V30 8 1 8 9
M  V30 9 1 9 10
M  V30 10 1 10 11
M  V30 11 2 11 12
M  V30 12 1 12 13
M  V30 13 1 13 14
M  V30 14 2 14 15
M  V30 15 1 14 16
M  V30 16 1 13 17
M  V30 17 2 17 18
M  V30 18 1 18 19
M  V30 19 2 19 20
M  V30 20 1 20 21
M  V30 21 2 21 22
M  V30 22 1 3 23
M  V30 23 1 23 24
M  V30 24 1 15 11
M  V30 25 1 22 17
M  V30 26 1 1 25
M  V30 27 1 1 26
M  V30 28 1 1 27
M  V30 29 1 3 28
M  V30 30 1 4 29
M  V30 31 1 4 30
M  V30 32 1 7 31
M  V30 33 1 8 32
M  V30 34 1 8 33
M  V30 35 1 9 34
M  V30 36 1 9 35
M  V30 37 1 10 36
M  V30 38 1 10 37
M  V30 39 1 15 38
M  V30 40 1 16 39
M  V30 41 1 16 40
M  V30 42 1 18 41
M  V30 43 1 19 42
M  V30 44 1 20 43
M  V30 45 1 21 44
M  V30 46 1 22 45
M  V30 47 1 23 46
M  V30 48 1 23 47
M  V30 49 1 24 48
M  V30 50 1 24 49
M  V30 END BOND
M  V30 END CTAB
M  END
