
     RDKit          3D

  0  0  0  0  0  0  0  0  0  0999 V3000
M  V30 BEGIN CTAB
M  V30 COUNTS 24 24 0 0 0
M  V30 BEGIN ATOM
M  V30 1 N -1.6138 -1.74806 0.986931 0
M  V30 2 C -1.6889 -0.594054 0.169761 0
M  V30 3 N -2.74663 0.235745 0.193352 0
M  V30 4 C -2.85945 1.33307 -0.564475 0
M  V30 5 C -1.82474 1.6405 -1.43122 0
M  V30 6 C -0.729269 0.807012 -1.47478 0
M  V30 7 C -0.625861 -0.317021 -0.690926 0
M  V30 8 C 0.562839 -1.20435 -0.741015 0
M  V30 9 C 1.46557 -0.969891 0.457686 0
M  V30 10 C 1.95733 0.460994 0.500599 0
M  V30 11 N 2.80883 0.648227 1.65403 0
M  V30 12 Cl -1.98698 3.07655 -2.41293 0
M  V30 13 H -1.66068 -1.63151 2.01492 0
M  V30 14 H -1.51451 -2.69393 0.589466 0
M  V30 15 H -3.74905 1.97196 -0.501062 0
M  V30 16 H 0.0706584 1.06299 -2.16199 0
M  V30 17 H 0.204147 -2.24615 -0.705706 0
M  V30 18 H 1.07881 -1.01431 -1.69276 0
M  V30 19 H 0.863818 -1.14189 1.37469 0
M  V30 20 H 2.2965 -1.70114 0.481412 0
M  V30 21 H 1.13275 1.17576 0.515541 0
M  V30 22 H 2.59394 0.62703 -0.40283 0
M  V30 23 H 2.2661 1.10539 2.42113 0
M  V30 24 H 3.69857 1.11708 1.42018 0
M  V30 END ATOM
M  V30 BEGIN BOND
M  V30 1 1 1 2
M  V30 2 2 2 3
M  V30 3 1 3 4
M  V30 4 2 4 5
M  V30 5 1 5 6
M  V30 6 2 6 7
M  V30 7 1 7 8
M  V30 8 1 8 9
M  V30 9 1 9 10
M  V30 10 1 10 11
M  V30 11 1 5 12
M  V30 12 1 7 2
M  V30 13 1 1 13
M  V30 14 1 1 14
M  V30 15 1 4 15
M  V30 16 1 6 16
M  V30 17 1 8 17
M  V30 18 1 8 18
M  V30 19 1 9 19
M  V30 20 1 9 20
M  V30 21 1 10 21
M  V30 22 1 10 22
M  V30 23 1 11 23
M  V30 24 1 11 24
M  V30 END BOND
M  V30 END CTAB
M  END
