
     RDKit          3D

  0  0  0  0  0  0  0  0  0  0999 V3000
M  V30 BEGIN CTAB
M  V30 COUNTS 40 43 0 0 0
M  V30 BEGIN ATOM
M  V30 1 N -6.52251 0.859929 0.285326 0
M  V30 2 C -5.38239 1.05447 0.235636 0
M  V30 3 C -3.9518 1.33081 0.195027 0
M  V30 4 C -3.62318 2.64219 0.246797 0
M  V30 5 N -4.55686 3.71127 0.309269 0
M  V30 6 N -2.31706 2.93505 0.237558 0
M  V30 7 C -1.3981 1.94555 0.176074 0
M  V30 8 C -1.65147 0.595843 0.119312 0
M  V30 9 C -3.01365 0.292402 0.133469 0
M  V30 10 C -3.59284 -1.04973 0.0434591 0
M  V30 11 C -3.41962 -2.18119 0.778859 0
M  V30 12 C -4.21138 -3.23874 0.52078 0
M  V30 13 C -5.14338 -3.10669 -0.465581 0
M  V30 14 S -4.89221 -1.51427 -1.00732 0
M  V30 15 C -0.578137 -0.211978 0.0251017 0
M  V30 16 N -0.572218 -1.65746 -0.130421 0
M  V30 17 C 0.650518 0.378048 0.00277081 0
M  V30 18 S 0.321359 2.02922 0.106166 0
M  V30 19 C 2.00101 -0.208701 -0.0872758 0
M  V30 20 O 2.08222 -1.44616 -0.155009 0
M  V30 21 N 3.10713 0.682219 -0.0900546 0
M  V30 22 C 4.46189 0.399437 -0.169054 0
M  V30 23 C 5.41523 1.41311 0.0846605 0
M  V30 24 C 6.75145 1.15513 -0.00108755 0
M  V30 25 C 7.1772 -0.104154 -0.337862 0
M  V30 26 C 6.29896 -1.11798 -0.592793 0
M  V30 27 C 4.93036 -0.84993 -0.504162 0
M  V30 28 Br 9.05098 -0.524325 -0.473191 0
M  V30 29 H -5.33323 3.76051 -0.37838 0
M  V30 30 H -4.51961 4.47681 1.01862 0
M  V30 31 H -2.67084 -2.2361 1.61494 0
M  V30 32 H -4.14642 -4.21138 1.06685 0
M  V30 33 H -5.86915 -3.87043 -0.803828 0
M  V30 34 H -0.286934 -2.28956 0.632345 0
M  V30 35 H -0.860048 -2.09519 -1.03523 0
M  V30 36 H 2.87295 1.73786 -0.0249073 0
M  V30 37 H 5.05153 2.40364 0.350705 0
M  V30 38 H 7.48204 1.91775 0.1896 0
M  V30 39 H 6.58725 -2.12109 -0.860352 0
M  V30 40 H 4.27095 -1.6862 -0.723869 0
M  V30 END ATOM
M  V30 BEGIN BOND
M  V30 1 3 1 2
M  V30 2 1 2 3
M  V30 3 2 3 4
M  V30 4 1 4 5
M  V30 5 1 4 6
M  V30 6 2 6 7
M  V30 7 1 7 8
M  V30 8 2 8 9
M  V30 9 1 9 10
M  V30 10 2 10 11
M  V30 11 1 11 12
M  V30 12 2 12 13
M  V30 13 1 13 14
M  V30 14 1 8 15
M  V30 15 1 15 16
M  V30 16 2 15 17
M  V30 17 1 17 18
M  V30 18 1 17 19
M  V30 19 2 19 20
M  V30 20 1 19 21
M  V30 21 1 21 22
M  V30 22 2 22 23
M  V30 23 1 23 24
M  V30 24 2 24 25
M  V30 25 1 25 26
M  V30 26 2 26 27
M  V30 27 1 25 28
M  V30 28 1 9 3
M  V30 29 1 14 10
M  V30 30 1 27 22
M  V30 31 1 18 7
M  V30 32 1 5 29
M  V30 33 1 5 30
M  V30 34 1 11 31
M  V30 35 1 12 32
M  V30 36 1 13 33
M  V30 37 1 16 34
M  V30 38 1 16 35
M  V30 39 1 21 36
M  V30 40 1 23 37
M  V30 41 1 24 38
M  V30 42 1 26 39
M  V30 43 1 27 40
M  V30 END BOND
M  V30 END CTAB
M  END
