
     RDKit          3D

  0  0  0  0  0  0  0  0  0  0999 V3000
M  V30 BEGIN CTAB
M  V30 COUNTS 38 40 0 0 0
M  V30 BEGIN ATOM
M  V30 1 O 1.29671 1.60974 -0.944483 0
M  V30 2 C 0.628501 1.83412 0.084037 0
M  V30 3 C 1.35053 2.26592 1.31611 0
M  V30 4 S 3.07781 2.51241 0.976435 0
M  V30 5 C 3.84712 0.952176 0.552243 0
M  V30 6 N 3.15015 -0.193956 0.477942 0
M  V30 7 C 3.77884 -1.33317 0.151451 0
M  V30 8 N 3.01923 -2.54244 0.0634853 0
M  V30 9 C 5.12543 -1.37194 -0.108456 0
M  V30 10 C 5.8272 -0.164352 -0.0214555 0
M  V30 11 N 5.15156 0.935015 0.304726 0
M  V30 12 N 7.23011 -0.136744 -0.266157 0
M  V30 13 N -0.770988 1.68029 0.0801073 0
M  V30 14 C -1.52126 1.24321 -1.05206 0
M  V30 15 C -2.67413 0.416456 -0.603742 0
M  V30 16 C -2.5618 -0.301416 0.577683 0
M  V30 17 C -3.61045 -1.03275 1.08021 0
M  V30 18 C -4.80879 -1.04976 0.382588 0
M  V30 19 C -4.93767 -0.341454 -0.792407 0
M  V30 20 C -3.84194 0.401119 -1.285 0
M  V30 21 O -6.22504 -0.527921 -1.27861 0
M  V30 22 C -6.9917 -1.02598 -0.187924 0
M  V30 23 O -6.01891 -1.6826 0.635375 0
M  V30 24 H 1.26804 1.41064 2.04933 0
M  V30 25 H 0.949461 3.20033 1.7578 0
M  V30 26 H 2.78993 -2.93752 -0.894165 0
M  V30 27 H 2.69761 -3.03104 0.931746 0
M  V30 28 H 5.62815 -2.27277 -0.373635 0
M  V30 29 H 7.86441 -0.479643 0.463442 0
M  V30 30 H 7.56654 0.218883 -1.17385 0
M  V30 31 H -1.2829 1.88711 0.962248 0
M  V30 32 H -0.855755 0.605461 -1.69234 0
M  V30 33 H -1.89576 2.11586 -1.59377 0
M  V30 34 H -1.60863 -0.250592 1.08745 0
M  V30 35 H -3.49435 -1.58407 2.00722 0
M  V30 36 H -4.00075 0.933519 -2.20378 0
M  V30 37 H -7.71585 -1.80626 -0.495402 0
M  V30 38 H -7.43067 -0.155889 0.322112 0
M  V30 END ATOM
M  V30 BEGIN BOND
M  V30 1 2 1 2
M  V30 2 1 2 3
M  V30 3 1 3 4
M  V30 4 1 4 5
M  V30 5 2 5 6
M  V30 6 1 6 7
M  V30 7 1 7 8
M  V30 8 2 7 9
M  V30 9 1 9 10
M  V30 10 2 10 11
M  V30 11 1 10 12
M  V30 12 1 2 13
M  V30 13 1 13 14
M  V30 14 1 14 15
M  V30 15 2 15 16
M  V30 16 1 16 17
M  V30 17 2 17 18
M  V30 18 1 18 19
M  V30 19 2 19 20
M  V30 20 1 19 21
M  V30 21 1 21 22
M  V30 22 1 22 23
M  V30 23 1 11 5
M  V30 24 1 20 15
M  V30 25 1 23 18
M  V30 26 1 3 24
M  V30 27 1 3 25
M  V30 28 1 8 26
M  V30 29 1 8 27
M  V30 30 1 9 28
M  V30 31 1 12 29
M  V30 32 1 12 30
M  V30 33 1 13 31
M  V30 34 1 14 32
M  V30 35 1 14 33
M  V30 36 1 16 34
M  V30 37 1 17 35
M  V30 38 1 20 36
M  V30 39 1 22 37
M  V30 40 1 22 38
M  V30 END BOND
M  V30 END CTAB
M  END
