
     RDKit          3D

  0  0  0  0  0  0  0  0  0  0999 V3000
M  V30 BEGIN CTAB
M  V30 COUNTS 41 43 0 0 0
M  V30 BEGIN ATOM
M  V30 1 N -3.15424 -2.26362 1.10806 0
M  V30 2 C -3.2113 -1.99278 -0.322337 0
M  V30 3 C -2.76159 -0.585182 -0.641178 0
M  V30 4 C -3.62522 0.446188 0.0482637 0
M  V30 5 C -3.52008 1.73736 -0.734857 0
M  V30 6 C -2.11263 1.8804 -1.22992 0
M  V30 7 C -1.12807 1.07827 -0.40581 0
M  V30 8 N -1.37324 -0.34488 -0.499192 0
M  V30 9 C -0.699033 -0.994624 0.570084 0
M  V30 10 C 0.74622 -0.570572 0.520356 0
M  V30 11 N 1.15219 0.455672 1.27331 0
M  V30 12 C 2.42201 0.896175 1.28704 0
M  V30 13 N 2.7926 1.98339 2.10155 0
M  V30 14 C 3.35508 0.271317 0.495214 0
M  V30 15 C 2.94574 -0.798869 -0.293939 0
M  V30 16 N 1.64369 -1.19301 -0.259379 0
M  V30 17 C 3.88124 -1.42704 -1.08926 0
M  V30 18 C 5.17599 -1.00212 -1.09574 0
M  V30 19 C 5.58573 0.0655583 -0.308819 0
M  V30 20 C 4.66841 0.707774 0.493241 0
M  V30 21 H -3.01964 -3.30818 1.19311 0
M  V30 22 H -4.10621 -2.09281 1.54816 0
M  V30 23 H -2.62023 -2.75284 -0.86901 0
M  V30 24 H -4.26613 -2.15951 -0.62267 0
M  V30 25 H -2.99487 -0.45762 -1.74258 0
M  V30 26 H -3.22 0.678398 1.07617 0
M  V30 27 H -4.67403 0.13919 0.0900809 0
M  V30 28 H -3.7974 2.61252 -0.11134 0
M  V30 29 H -4.18863 1.72673 -1.64296 0
M  V30 30 H -1.77675 2.93547 -1.18333 0
M  V30 31 H -1.98869 1.56236 -2.28673 0
M  V30 32 H -0.11619 1.25884 -0.824958 0
M  V30 33 H -1.23447 1.41125 0.644939 0
M  V30 34 H -1.09467 -0.759616 1.57312 0
M  V30 35 H -0.660604 -2.09845 0.48398 0
M  V30 36 H 3.43506 2.69893 1.74459 0
M  V30 37 H 2.42021 2.06465 3.05889 0
M  V30 38 H 3.59784 -2.26378 -1.71662 0
M  V30 39 H 5.9169 -1.48078 -1.70969 0
M  V30 40 H 6.60989 0.391544 -0.322512 0
M  V30 41 H 4.99513 1.54429 1.1082 0
M  V30 END ATOM
M  V30 BEGIN BOND
M  V30 1 1 1 2
M  V30 2 1 2 3
M  V30 3 1 3 4
M  V30 4 1 4 5
M  V30 5 1 5 6
M  V30 6 1 6 7
M  V30 7 1 7 8
M  V30 8 1 8 9
M  V30 9 1 9 10
M  V30 10 2 10 11
M  V30 11 1 11 12
M  V30 12 1 12 13
M  V30 13 2 12 14
M  V30 14 1 14 15
M  V30 15 2 15 16
M  V30 16 1 15 17
M  V30 17 2 17 18
M  V30 18 1 18 19
M  V30 19 2 19 20
M  V30 20 1 8 3
M  V30 21 1 16 10
M  V30 22 1 20 14
M  V30 23 1 1 21
M  V30 24 1 1 22
M  V30 25 1 2 23
M  V30 26 1 2 24
M  V30 27 1 3 25
M  V30 28 1 4 26
M  V30 29 1 4 27
M  V30 30 1 5 28
M  V30 31 1 5 29
M  V30 32 1 6 30
M  V30 33 1 6 31
M  V30 34 1 7 32
M  V30 35 1 7 33
M  V30 36 1 9 34
M  V30 37 1 9 35
M  V30 38 1 13 36
M  V30 39 1 13 37
M  V30 40 1 17 38
M  V30 41 1 18 39
M  V30 42 1 19 40
M  V30 43 1 20 41
M  V30 END BOND
M  V30 END CTAB
M  END
