
     RDKit          3D

  0  0  0  0  0  0  0  0  0  0999 V3000
M  V30 BEGIN CTAB
M  V30 COUNTS 36 38 0 0 0
M  V30 BEGIN ATOM
M  V30 1 N -1.9919 -3.56426 -0.10126 0
M  V30 2 P -2.18468 -1.95906 0.55823 0
M  V30 3 N -3.11981 -1.99247 2.01491 0
M  V30 4 N -2.86636 -1.06884 -0.566536 0
M  V30 5 P -1.97638 -0.965679 -2.07603 0
M  V30 6 Cl -2.40708 -2.67965 -3.15279 0
M  V30 7 Cl -2.57303 0.741046 -3.08366 0
M  V30 8 N -0.436563 -0.881685 -1.76365 0
M  V30 9 P 0.0384694 -0.326783 -0.170054 0
M  V30 10 N -0.637037 -1.22673 0.898556 0
M  V30 11 C -0.429771 1.38152 -0.0413542 0
M  V30 12 C 0.0835133 2.25725 -0.977555 0
M  V30 13 C -0.218989 3.60233 -0.964301 0
M  V30 14 C -1.06076 4.10058 0.0113638 0
M  V30 15 C -1.56309 3.20598 0.938452 0
M  V30 16 C -1.26126 1.8737 0.922387 0
M  V30 17 C 1.82732 -0.418381 -0.0176849 0
M  V30 18 C 2.56671 0.636072 0.464419 0
M  V30 19 C 3.93827 0.602813 0.59543 0
M  V30 20 C 4.57156 -0.571927 0.211065 0
M  V30 21 C 3.83112 -1.63688 -0.275178 0
M  V30 22 C 2.47074 -1.5753 -0.394148 0
M  V30 23 H -2.93576 -3.87129 -0.428037 0
M  V30 24 H -1.691 -4.24067 0.632584 0
M  V30 25 H -2.47094 -2.0388 2.8484 0
M  V30 26 H -3.68064 -2.88069 2.03868 0
M  V30 27 H 0.754224 1.8854 -1.76222 0
M  V30 28 H 0.178931 4.29514 -1.69411 0
M  V30 29 H -1.33512 5.14298 0.0747525 0
M  V30 30 H -2.22682 3.61789 1.70222 0
M  V30 31 H -1.65578 1.17709 1.64879 0
M  V30 32 H 2.02004 1.52757 0.749177 0
M  V30 33 H 4.50932 1.44119 0.976971 0
M  V30 34 H 5.63297 -0.618373 0.304529 0
M  V30 35 H 4.36346 -2.53782 -0.565045 0
M  V30 36 H 1.93613 -2.43324 -0.779364 0
M  V30 END ATOM
M  V30 BEGIN BOND
M  V30 1 1 1 2
M  V30 2 1 2 3
M  V30 3 2 2 4
M  V30 4 1 4 5
M  V30 5 1 5 6
M  V30 6 1 5 7
M  V30 7 2 5 8
M  V30 8 1 8 9
M  V30 9 2 9 10
M  V30 10 1 9 11
M  V30 11 2 11 12
M  V30 12 1 12 13
M  V30 13 2 13 14
M  V30 14 1 14 15
M  V30 15 2 15 16
M  V30 16 1 9 17
M  V30 17 2 17 18
M  V30 18 1 18 19
M  V30 19 2 19 20
M  V30 20 1 20 21
M  V30 21 2 21 22
M  V30 22 1 10 2
M  V30 23 1 16 11
M  V30 24 1 22 17
M  V30 25 1 1 23
M  V30 26 1 1 24
M  V30 27 1 3 25
M  V30 28 1 3 26
M  V30 29 1 12 27
M  V30 30 1 13 28
M  V30 31 1 14 29
M  V30 32 1 15 30
M  V30 33 1 16 31
M  V30 34 1 18 32
M  V30 35 1 19 33
M  V30 36 1 20 34
M  V30 37 1 21 35
M  V30 38 1 22 36
M  V30 END BOND
M  V30 END CTAB
M  END
