
     RDKit          3D

  0  0  0  0  0  0  0  0  0  0999 V3000
M  V30 BEGIN CTAB
M  V30 COUNTS 37 38 0 0 0
M  V30 BEGIN ATOM
M  V30 1 C -3.42019 0.826692 0.484546 0
M  V30 2 C -2.67741 -0.370606 -0.0374557 0
M  V30 3 C -3.47678 -1.61497 0.294589 0
M  V30 4 C -2.31524 -0.26954 -1.48842 0
M  V30 5 C -1.09767 0.638914 -1.4471 0
M  V30 6 C -0.537542 0.466438 -0.0421787 0
M  V30 7 C -0.68678 1.76892 0.752309 0
M  V30 8 N -1.35429 -0.562317 0.560611 0
M  V30 9 O -0.967895 -1.78017 0.0199076 0 RAD=2 VAL=1
M  V30 10 C 0.912519 0.16107 -0.0831121 0
M  V30 11 C 1.69083 1.0346 -0.848716 0
M  V30 12 C 3.06295 0.959137 -0.851937 0
M  V30 13 C 3.72772 0.012583 -0.0988181 0
M  V30 14 N 5.15258 -0.0258793 -0.0864572 0
M  V30 15 C 2.93727 -0.838925 0.645098 0
M  V30 16 N 3.58809 -1.83828 1.42988 0
M  V30 17 C 1.54254 -0.786257 0.665395 0
M  V30 18 H -3.22055 1.76195 -0.00533302 0
M  V30 19 H -3.41954 0.841481 1.5879 0
M  V30 20 H -4.51345 0.599215 0.232138 0
M  V30 21 H -4.44583 -1.52395 -0.202158 0
M  V30 22 H -2.93805 -2.5303 0.104721 0
M  V30 23 H -3.67236 -1.5714 1.39551 0
M  V30 24 H -3.11147 0.100243 -2.15878 0
M  V30 25 H -1.93981 -1.2743 -1.8054 0
M  V30 26 H -1.42451 1.70015 -1.62615 0
M  V30 27 H -0.414676 0.306442 -2.23597 0
M  V30 28 H -1.24533 1.68284 1.68483 0
M  V30 29 H 0.342515 2.11577 1.07219 0
M  V30 30 H -1.04051 2.55465 0.0822562 0
M  V30 31 H 1.24538 1.79007 -1.4693 0
M  V30 32 H 3.70031 1.62653 -1.43622 0
M  V30 33 H 5.63684 -0.911421 -0.188377 0
M  V30 34 H 5.68582 0.857714 0.0273815 0
M  V30 35 H 3.05951 -2.65203 1.76644 0
M  V30 36 H 4.58876 -1.72791 1.67151 0
M  V30 37 H 1.04626 -1.52719 1.28757 0
M  V30 END ATOM
M  V30 BEGIN BOND
M  V30 1 1 1 2
M  V30 2 1 2 3
M  V30 3 1 2 4
M  V30 4 1 4 5
M  V30 5 1 5 6
M  V30 6 1 6 7
M  V30 7 1 6 8
M  V30 8 1 8 9
M  V30 9 1 6 10
M  V30 10 2 10 11
M  V30 11 1 11 12
M  V30 12 2 12 13
M  V30 13 1 13 14
M  V30 14 1 13 15
M  V30 15 1 15 16
M  V30 16 2 15 17
M  V30 17 1 8 2
M  V30 18 1 17 10
M  V30 19 1 1 18
M  V30 20 1 1 19
M  V30 21 1 1 20
M  V30 22 1 3 21
M  V30 23 1 3 22
M  V30 24 1 3 23
M  V30 25 1 4 24
M  V30 26 1 4 25
M  V30 27 1 5 26
M  V30 28 1 5 27
M  V30 29 1 7 28
M  V30 30 1 7 29
M  V30 31 1 7 30
M  V30 32 1 11 31
M  V30 33 1 12 32
M  V30 34 1 14 33
M  V30 35 1 14 34
M  V30 36 1 16 35
M  V30 37 1 16 36
M  V30 38 1 17 37
M  V30 END BOND
M  V30 END CTAB
M  END
