
     RDKit          3D

  0  0  0  0  0  0  0  0  0  0999 V3000
M  V30 BEGIN CTAB
M  V30 COUNTS 20 20 0 0 0
M  V30 BEGIN ATOM
M  V30 1 N 3.06857 3.22388 0.975454 0
M  V30 2 C 2.6333 2.23227 0.555822 0
M  V30 3 C 2.0626 0.982335 0.0558218 0
M  V30 4 C 2.762 0.143325 -0.794924 0
M  V30 5 C 2.21903 -1.05216 -1.26994 0
M  V30 6 F 2.94886 -1.8407 -2.08847 0
M  V30 7 C 0.949664 -1.36874 -0.864229 0
M  V30 8 C 0.199971 -0.550137 -0.00933715 0
M  V30 9 C 0.783113 0.606941 0.430454 0
M  V30 10 N -1.09539 -0.893389 0.271487 0
M  V30 11 C -2.21709 -0.380063 0.0953238 0
M  V30 12 N -2.54511 0.873309 -0.513556 0
M  V30 13 N -3.36101 -1.17256 0.497807 0
M  V30 14 H 3.7709 0.453191 -1.10568 0
M  V30 15 H 0.505858 -2.27994 -1.19429 0
M  V30 16 H 0.241326 1.25848 1.09827 0
M  V30 17 H -2.83966 1.02189 -1.49351 0
M  V30 18 H -2.49504 1.74403 0.11752 0
M  V30 19 H -3.25335 -2.17828 0.825641 0
M  V30 20 H -4.33853 -0.823655 0.4833 0
M  V30 END ATOM
M  V30 BEGIN BOND
M  V30 1 3 1 2
M  V30 2 1 2 3
M  V30 3 2 3 4
M  V30 4 1 4 5
M  V30 5 1 5 6
M  V30 6 2 5 7
M  V30 7 1 7 8
M  V30 8 2 8 9
M  V30 9 1 8 10
M  V30 10 2 10 11 CFG=2
M  V30 11 1 11 12
M  V30 12 1 11 13
M  V30 13 1 9 3
M  V30 14 1 4 14
M  V30 15 1 7 15
M  V30 16 1 9 16
M  V30 17 1 12 17
M  V30 18 1 12 18
M  V30 19 1 13 19
M  V30 20 1 13 20
M  V30 END BOND
M  V30 END CTAB
M  END
