
     RDKit          3D

  0  0  0  0  0  0  0  0  0  0999 V3000
M  V30 BEGIN CTAB
M  V30 COUNTS 45 48 0 0 0
M  V30 BEGIN ATOM
M  V30 1 C -0.156039 -0.910725 1.8775 0
M  V30 2 C 0.399183 -0.474533 0.585284 0
M  V30 3 C -0.42785 -0.236417 -0.414911 0
M  V30 4 C -1.85978 -0.367141 -0.361082 0
M  V30 5 C -2.74557 0.581855 -0.872023 0
M  V30 6 C -4.02757 0.120004 -0.645963 0
M  V30 7 C -5.27945 0.614663 -0.922131 0
M  V30 8 C -6.45272 -0.0742264 -0.573967 0
M  V30 9 C -6.2934 -1.28007 0.0612893 0
M  V30 10 C -5.01978 -1.76122 0.330364 0
M  V30 11 C -3.86892 -1.09573 -0.00417289 0
M  V30 12 O -2.58707 -1.31138 0.127156 0
M  V30 13 C -7.74482 0.463868 -0.871179 0
M  V30 14 N -7.81333 1.72931 -1.55793 0
M  V30 15 N -8.8261 -0.104262 -0.568789 0
M  V30 16 C 1.85641 -0.319693 0.393888 0
M  V30 17 C 2.84005 -0.470517 1.33971 0
M  V30 18 C 4.05117 -0.232491 0.712459 0
M  V30 19 C 5.38608 -0.233967 1.12736 0
M  V30 20 C 6.41754 0.0451702 0.256155 0
M  V30 21 C 6.06048 0.327111 -1.04729 0
M  V30 22 C 4.76932 0.339039 -1.49202 0
M  V30 23 C 3.75921 0.0537426 -0.592084 0
M  V30 24 O 2.4625 -0.00801129 -0.734532 0
M  V30 25 C 7.81469 0.0522558 0.667601 0
M  V30 26 N 8.80862 0.343096 -0.305057 0
M  V30 27 N 8.22361 -0.190699 1.85835 0
M  V30 28 H -0.573772 -1.9306 1.8524 0
M  V30 29 H 0.657755 -0.81158 2.65608 0
M  V30 30 H -0.964225 -0.236576 2.23754 0
M  V30 31 H 0.0413419 0.0898655 -1.3494 0
M  V30 32 H -2.51606 1.51446 -1.36081 0
M  V30 33 H -5.34605 1.55095 -1.41656 0
M  V30 34 H -7.16439 -1.88937 0.367448 0
M  V30 35 H -4.9471 -2.70882 0.829805 0
M  V30 36 H -8.56051 1.87483 -2.26758 0
M  V30 37 H -7.15183 2.4981 -1.37137 0
M  V30 38 H -8.85185 -1.00966 -0.0790443 0
M  V30 39 H 2.74403 -0.723701 2.38422 0
M  V30 40 H 5.58978 -0.462316 2.16348 0
M  V30 41 H 6.87695 0.554313 -1.75321 0
M  V30 42 H 4.50046 0.560395 -2.51755 0
M  V30 43 H 9.2135 1.27054 -0.485709 0
M  V30 44 H 9.1427 -0.475368 -0.88082 0
M  V30 45 H 7.56281 -0.412509 2.61708 0
M  V30 END ATOM
M  V30 BEGIN BOND
M  V30 1 1 1 2
M  V30 2 2 2 3
M  V30 3 1 3 4
M  V30 4 2 4 5
M  V30 5 1 5 6
M  V30 6 2 6 7
M  V30 7 1 7 8
M  V30 8 2 8 9
M  V30 9 1 9 10
M  V30 10 2 10 11
M  V30 11 1 11 12
M  V30 12 1 8 13
M  V30 13 1 13 14
M  V30 14 2 13 15 CFG=2
M  V30 15 1 2 16
M  V30 16 2 16 17
M  V30 17 1 17 18
M  V30 18 2 18 19
M  V30 19 1 19 20
M  V30 20 2 20 21
M  V30 21 1 21 22
M  V30 22 2 22 23
M  V30 23 1 23 24
M  V30 24 1 20 25
M  V30 25 1 25 26
M  V30 26 2 25 27 CFG=2
M  V30 27 1 12 4
M  V30 28 1 24 16
M  V30 29 1 11 6
M  V30 30 1 23 18
M  V30 31 1 1 28
M  V30 32 1 1 29
M  V30 33 1 1 30
M  V30 34 1 3 31
M  V30 35 1 5 32
M  V30 36 1 7 33
M  V30 37 1 9 34
M  V30 38 1 10 35
M  V30 39 1 14 36
M  V30 40 1 14 37
M  V30 41 1 15 38
M  V30 42 1 17 39
M  V30 43 1 19 40
M  V30 44 1 21 41
M  V30 45 1 22 42
M  V30 46 1 26 43
M  V30 47 1 26 44
M  V30 48 1 27 45
M  V30 END BOND
M  V30 END CTAB
M  END
