
     RDKit          3D

  0  0  0  0  0  0  0  0  0  0999 V3000
M  V30 BEGIN CTAB
M  V30 COUNTS 43 45 0 0 0
M  V30 BEGIN ATOM
M  V30 1 C 3.8395 3.48134 -1.01978 0
M  V30 2 O 2.9302 2.45602 -1.26142 0
M  V30 3 C 2.82388 1.25899 -0.609981 0
M  V30 4 C 1.83147 0.342619 -0.99482 0
M  V30 5 C 1.67996 -0.869638 -0.3758 0
M  V30 6 C 0.575063 -1.7668 -0.754312 0
M  V30 7 C -0.748375 -1.11956 -0.860188 0
M  V30 8 C -1.53446 -0.724596 0.192328 0
M  V30 9 C -1.17787 -1.03314 1.5918 0
M  V30 10 C -2.72222 -0.0697498 -0.142999 0
M  V30 11 C -3.10412 0.171115 -1.45438 0
M  V30 12 N -4.24534 0.820021 -1.71504 0
M  V30 13 C -5.07618 1.27175 -0.776359 0
M  V30 14 N -6.28851 1.96837 -1.12195 0
M  V30 15 N -4.7393 1.05832 0.494392 0
M  V30 16 C -3.57841 0.398121 0.814377 0
M  V30 17 N -3.26661 0.244554 2.18225 0
M  V30 18 N -2.30565 -0.238427 -2.44129 0
M  V30 19 C -1.18348 -0.852778 -2.17607 0
M  V30 20 Cl -0.214381 -1.4047 -3.52274 0
M  V30 21 C 2.5363 -1.18351 0.653564 0
M  V30 22 O 2.44843 -2.37288 1.31431 0
M  V30 23 C 3.21297 -2.8682 2.35676 0
M  V30 24 C 3.51536 -0.282757 1.03408 0
M  V30 25 C 3.67102 0.938103 0.413484 0
M  V30 26 H 4.68494 3.2527 -0.380064 0
M  V30 27 H 3.22663 4.32693 -0.572201 0
M  V30 28 H 4.17352 3.90812 -2.01703 0
M  V30 29 H 1.21293 0.692702 -1.80586 0
M  V30 30 H 0.537003 -2.67397 -0.0798988 0
M  V30 31 H 0.862119 -2.23019 -1.72845 0
M  V30 32 H -0.291116 -1.7498 1.50146 0
M  V30 33 H -1.85933 -1.7618 2.10056 0
M  V30 34 H -0.736283 -0.253387 2.18884 0
M  V30 35 H -7.185 1.46151 -1.12493 0
M  V30 36 H -6.19479 2.97269 -1.3595 0
M  V30 37 H -2.62792 0.955655 2.64162 0
M  V30 38 H -3.64228 -0.514325 2.78531 0
M  V30 39 H 2.71418 -2.65588 3.3223 0
M  V30 40 H 4.2427 -2.47258 2.30289 0
M  V30 41 H 3.31749 -3.98781 2.30124 0
M  V30 42 H 4.21687 -0.501237 1.85168 0
M  V30 43 H 4.46911 1.6081 0.766296 0
M  V30 END ATOM
M  V30 BEGIN BOND
M  V30 1 1 1 2
M  V30 2 1 2 3
M  V30 3 2 3 4
M  V30 4 1 4 5
M  V30 5 1 5 6
M  V30 6 1 6 7
M  V30 7 2 7 8
M  V30 8 1 8 9
M  V30 9 1 8 10
M  V30 10 2 10 11
M  V30 11 1 11 12
M  V30 12 2 12 13
M  V30 13 1 13 14
M  V30 14 1 13 15
M  V30 15 2 15 16
M  V30 16 1 16 17
M  V30 17 1 11 18
M  V30 18 2 18 19
M  V30 19 1 19 20
M  V30 20 2 5 21
M  V30 21 1 21 22
M  V30 22 1 22 23
M  V30 23 1 21 24
M  V30 24 2 24 25
M  V30 25 1 25 3
M  V30 26 1 19 7
M  V30 27 1 16 10
M  V30 28 1 1 26
M  V30 29 1 1 27
M  V30 30 1 1 28
M  V30 31 1 4 29
M  V30 32 1 6 30
M  V30 33 1 6 31
M  V30 34 1 9 32
M  V30 35 1 9 33
M  V30 36 1 9 34
M  V30 37 1 14 35
M  V30 38 1 14 36
M  V30 39 1 17 37
M  V30 40 1 17 38
M  V30 41 1 23 39
M  V30 42 1 23 40
M  V30 43 1 23 41
M  V30 44 1 24 42
M  V30 45 1 25 43
M  V30 END BOND
M  V30 END CTAB
M  END
