
     RDKit          3D

  0  0  0  0  0  0  0  0  0  0999 V3000
M  V30 BEGIN CTAB
M  V30 COUNTS 17 17 0 0 0
M  V30 BEGIN ATOM
M  V30 1 N -1.26533 -1.99556 -0.0127507 0
M  V30 2 C -0.336382 -0.918504 0.0168275 0
M  V30 3 C -0.757362 0.406896 -0.0205849 0
M  V30 4 N -2.16111 0.655068 -0.0900937 0
M  V30 5 C 0.155469 1.44256 0.00877022 0
M  V30 6 O -0.275271 2.76433 -0.0290558 0
M  V30 7 N 1.46936 1.15868 0.0745197 0
M  V30 8 C 1.94322 -0.085529 0.113353 0
M  V30 9 O 3.29228 -0.396664 0.181123 0
M  V30 10 C 1.03493 -1.12352 0.0842436 0
M  V30 11 H -1.55311 -2.31967 -0.983665 0
M  V30 12 H -1.62279 -2.41866 0.849028 0
M  V30 13 H -2.65912 0.726775 0.827689 0
M  V30 14 H -2.58983 0.74657 -1.01765 0
M  V30 15 H -0.00966652 3.36805 -0.777593 0
M  V30 16 H 3.98096 0.163444 0.662641 0
M  V30 17 H 1.35375 -2.17426 0.113195 0
M  V30 END ATOM
M  V30 BEGIN BOND
M  V30 1 1 1 2
M  V30 2 2 2 3
M  V30 3 1 3 4
M  V30 4 1 3 5
M  V30 5 1 5 6
M  V30 6 2 5 7
M  V30 7 1 7 8
M  V30 8 1 8 9
M  V30 9 2 8 10
M  V30 10 1 10 2
M  V30 11 1 1 11
M  V30 12 1 1 12
M  V30 13 1 4 13
M  V30 14 1 4 14
M  V30 15 1 6 15
M  V30 16 1 9 16
M  V30 17 1 10 17
M  V30 END BOND
M  V30 END CTAB
M  END
