
     RDKit          3D

  0  0  0  0  0  0  0  0  0  0999 V3000
M  V30 BEGIN CTAB
M  V30 COUNTS 33 33 0 0 0
M  V30 BEGIN ATOM
M  V30 1 N 4.42028 0.50725 -0.359363 0
M  V30 2 C 3.00168 0.484302 -0.419484 0
M  V30 3 C 2.52205 -0.626672 0.451747 0
M  V30 4 N 1.09713 -0.788387 0.501912 0
M  V30 5 C 0.519792 -1.25336 -0.726825 0
M  V30 6 C -0.743105 -2.04783 -0.527439 0
M  V30 7 C -1.91767 -1.17027 -0.814273 0
M  V30 8 C -1.67356 0.257245 -0.307539 0 CFG=2
M  V30 9 C -1.06232 0.189252 1.05593 0
M  V30 10 C 0.420416 0.335705 1.08283 0
M  V30 11 S -3.30413 1.01254 -0.289873 0
M  V30 12 O -3.83117 0.927706 -1.69506 0
M  V30 13 O -4.23388 0.220109 0.594487 0
M  V30 14 N -3.22576 2.65569 0.169159 0
M  V30 15 H 4.82703 -0.191991 0.182163 0
M  V30 16 H 4.84997 1.378 -0.393999 0
M  V30 17 H 2.6683 1.48629 -0.0864782 0
M  V30 18 H 2.73271 0.335172 -1.47935 0
M  V30 19 H 2.9456 -1.57733 0.0281167 0
M  V30 20 H 2.9294 -0.540686 1.46122 0
M  V30 21 H 0.394366 -0.48322 -1.49966 0
M  V30 22 H 1.27342 -1.97954 -1.15847 0
M  V30 23 H -0.789253 -2.90129 -1.24268 0
M  V30 24 H -0.786906 -2.51821 0.484806 0
M  V30 25 H -2.8456 -1.56625 -0.354738 0
M  V30 26 H -2.00961 -1.06989 -1.91923 0
M  V30 27 H -1.07113 0.833841 -1.01537 0
M  V30 28 H -1.38713 -0.702197 1.6368 0
M  V30 29 H -1.48295 1.05942 1.63573 0
M  V30 30 H 0.693589 1.31813 0.685241 0
M  V30 31 H 0.710438 0.35258 2.17498 0
M  V30 32 H -2.63126 2.8472 0.980686 0
M  V30 33 H -3.01073 3.21671 -0.686325 0
M  V30 END ATOM
M  V30 BEGIN BOND
M  V30 1 1 1 2
M  V30 2 1 2 3
M  V30 3 1 3 4
M  V30 4 1 4 5
M  V30 5 1 5 6
M  V30 6 1 6 7
M  V30 7 1 7 8
M  V30 8 1 8 9
M  V30 9 1 9 10
M  V30 10 1 8 11
M  V30 11 2 11 12
M  V30 12 2 11 13
M  V30 13 1 11 14
M  V30 14 1 10 4
M  V30 15 1 1 15
M  V30 16 1 1 16
M  V30 17 1 2 17
M  V30 18 1 2 18
M  V30 19 1 3 19
M  V30 20 1 3 20
M  V30 21 1 5 21
M  V30 22 1 5 22
M  V30 23 1 6 23
M  V30 24 1 6 24
M  V30 25 1 7 25
M  V30 26 1 7 26
M  V30 27 1 8 27 CFG=3
M  V30 28 1 9 28
M  V30 29 1 9 29
M  V30 30 1 10 30
M  V30 31 1 10 31
M  V30 32 1 14 32
M  V30 33 1 14 33
M  V30 END BOND
M  V30 END CTAB
M  END
