
     RDKit          3D

  0  0  0  0  0  0  0  0  0  0999 V3000
M  V30 BEGIN CTAB
M  V30 COUNTS 25 26 0 0 0
M  V30 BEGIN ATOM
M  V30 1 N -2.48523 1.54307 0.741974 0
M  V30 2 C -1.84583 0.665518 -0.234222 0
M  V30 3 C -2.25183 0.801851 -1.62967 0
M  V30 4 C -2.807 -0.372206 -0.90424 0
M  V30 5 C -0.617876 0.0397822 0.240404 0
M  V30 6 C -0.687819 -0.651379 1.4407 0
M  V30 7 C 0.373054 -1.27103 2.01104 0
M  V30 8 C 1.58992 -1.21791 1.36842 0
M  V30 9 C 1.67173 -0.528168 0.161973 0
M  V30 10 N 0.581093 0.0631718 -0.343344 0
M  V30 11 S 3.24318 -0.483863 -0.627463 0
M  V30 12 O 4.24129 -1.25036 0.153981 0
M  V30 13 O 3.16826 -1.11282 -1.99502 0
M  V30 14 N 3.73819 1.16877 -0.688357 0
M  V30 15 H -3.11941 2.19052 0.258168 0
M  V30 16 H -2.88689 1.00633 1.52189 0
M  V30 17 H -3.00005 1.60105 -1.84781 0
M  V30 18 H -1.56782 0.657363 -2.48848 0
M  V30 19 H -3.83773 -0.370524 -0.48823 0
M  V30 20 H -2.39724 -1.3466 -1.202 0
M  V30 21 H -1.6445 -0.731628 1.98537 0
M  V30 22 H 0.353519 -1.80833 2.93902 0
M  V30 23 H 2.49472 -1.68913 1.76684 0
M  V30 24 H 3.02016 1.81336 -1.02559 0
M  V30 25 H 4.6741 1.28315 -1.11534 0
M  V30 END ATOM
M  V30 BEGIN BOND
M  V30 1 1 1 2
M  V30 2 1 2 3
M  V30 3 1 3 4
M  V30 4 1 2 5
M  V30 5 2 5 6
M  V30 6 1 6 7
M  V30 7 2 7 8
M  V30 8 1 8 9
M  V30 9 2 9 10
M  V30 10 1 9 11
M  V30 11 2 11 12
M  V30 12 2 11 13
M  V30 13 1 11 14
M  V30 14 1 4 2
M  V30 15 1 10 5
M  V30 16 1 1 15
M  V30 17 1 1 16
M  V30 18 1 3 17
M  V30 19 1 3 18
M  V30 20 1 4 19
M  V30 21 1 4 20
M  V30 22 1 6 21
M  V30 23 1 7 22
M  V30 24 1 8 23
M  V30 25 1 14 24
M  V30 26 1 14 25
M  V30 END BOND
M  V30 END CTAB
M  END
