
     RDKit          3D

  0  0  0  0  0  0  0  0  0  0999 V3000
M  V30 BEGIN CTAB
M  V30 COUNTS 18 17 0 0 0
M  V30 BEGIN ATOM
M  V30 1 N 2.61396 0.249181 -0.716858 0
M  V30 2 C 1.25235 -0.336122 -0.631061 0
M  V30 3 C 0.768219 0.0367539 0.720046 0
M  V30 4 C -0.579665 -0.426956 1.12626 0
M  V30 5 C -1.60846 0.105107 0.220363 0
M  V30 6 N -2.43998 0.987347 0.677269 0
M  V30 7 N -1.76255 -0.276229 -1.13107 0
M  V30 8 H 2.45824 1.28239 -0.703997 0
M  V30 9 H 3.06236 -0.0123153 0.190745 0
M  V30 10 H 0.692289 0.090272 -1.48692 0
M  V30 11 H 1.41188 -1.42378 -0.749886 0
M  V30 12 H 1.52718 -0.396694 1.44345 0
M  V30 13 H 0.90303 1.15078 0.870179 0
M  V30 14 H -0.66021 -1.53849 1.19156 0
M  V30 15 H -0.798189 -0.0548426 2.17224 0
M  V30 16 H -3.19871 1.41799 0.109732 0
M  V30 17 H -1.58815 -1.26082 -1.41469 0
M  V30 18 H -2.05359 0.40643 -1.88736 0
M  V30 END ATOM
M  V30 BEGIN BOND
M  V30 1 1 1 2
M  V30 2 1 2 3
M  V30 3 1 3 4
M  V30 4 1 4 5
M  V30 5 2 5 6 CFG=2
M  V30 6 1 5 7
M  V30 7 1 1 8
M  V30 8 1 1 9
M  V30 9 1 2 10
M  V30 10 1 2 11
M  V30 11 1 3 12
M  V30 12 1 3 13
M  V30 13 1 4 14
M  V30 14 1 4 15
M  V30 15 1 6 16
M  V30 16 1 7 17
M  V30 17 1 7 18
M  V30 END BOND
M  V30 END CTAB
M  END
