
     RDKit          3D

  0  0  0  0  0  0  0  0  0  0999 V3000
M  V30 BEGIN CTAB
M  V30 COUNTS 30 31 0 0 0
M  V30 BEGIN ATOM
M  V30 1 N -0.861742 -0.0854444 1.50221 0
M  V30 2 C -1.48963 0.0978086 0.24539 0
M  V30 3 C -2.88602 0.103156 0.187701 0
M  V30 4 N -3.63356 -0.0707829 1.38522 0
M  V30 5 C -3.4502 0.279172 -1.04349 0
M  V30 6 C -2.70093 0.44573 -2.18966 0
M  V30 7 N -1.36189 0.43016 -2.06135 0
M  V30 8 C -0.727971 0.262634 -0.887671 0
M  V30 9 N 0.683 0.249076 -0.748711 0
M  V30 10 C 1.34457 1.24301 0.0506559 0
M  V30 11 C 2.39582 0.736209 0.968523 0
M  V30 12 C 3.03542 -0.548329 0.608544 0
M  V30 13 C 2.28343 -1.44315 -0.290624 0
M  V30 14 C 1.52637 -0.744291 -1.38864 0
M  V30 15 H -0.237482 -0.889031 1.73715 0
M  V30 16 H -0.996613 0.604301 2.29421 0
M  V30 17 H -3.84862 -1.0013 1.80118 0
M  V30 18 H -3.97854 0.780515 1.8623 0
M  V30 19 H -4.54592 0.289801 -1.13343 0
M  V30 20 H -3.17456 0.586158 -3.17263 0
M  V30 21 H 0.594619 1.85608 0.625601 0
M  V30 22 H 1.77445 1.9864 -0.678004 0
M  V30 23 H 2.01949 0.739312 2.03211 0
M  V30 24 H 3.21276 1.5193 0.992075 0
M  V30 25 H 3.22531 -1.11136 1.57134 0
M  V30 26 H 4.07381 -0.401634 0.18977 0
M  V30 27 H 2.98887 -2.15526 -0.779892 0
M  V30 28 H 1.53244 -2.05113 0.274315 0
M  V30 29 H 2.2521 -0.217756 -2.0171 0
M  V30 30 H 0.951223 -1.48935 -1.93711 0
M  V30 END ATOM
M  V30 BEGIN BOND
M  V30 1 1 1 2
M  V30 2 2 2 3
M  V30 3 1 3 4
M  V30 4 1 3 5
M  V30 5 2 5 6
M  V30 6 1 6 7
M  V30 7 2 7 8
M  V30 8 1 8 9
M  V30 9 1 9 10
M  V30 10 1 10 11
M  V30 11 1 11 12
M  V30 12 1 12 13
M  V30 13 1 13 14
M  V30 14 1 8 2
M  V30 15 1 14 9
M  V30 16 1 1 15
M  V30 17 1 1 16
M  V30 18 1 4 17
M  V30 19 1 4 18
M  V30 20 1 5 19
M  V30 21 1 6 20
M  V30 22 1 10 21
M  V30 23 1 10 22
M  V30 24 1 11 23
M  V30 25 1 11 24
M  V30 26 1 12 25
M  V30 27 1 12 26
M  V30 28 1 13 27
M  V30 29 1 13 28
M  V30 30 1 14 29
M  V30 31 1 14 30
M  V30 END BOND
M  V30 END CTAB
M  END
