
     RDKit          3D

  0  0  0  0  0  0  0  0  0  0999 V3000
M  V30 BEGIN CTAB
M  V30 COUNTS 47 49 0 0 0
M  V30 BEGIN ATOM
M  V30 1 N -6.85628 3.43616 -0.486551 0
M  V30 2 C -5.65152 2.69776 -0.401066 0
M  V30 3 C -5.11469 2.0667 -1.50565 0
M  V30 4 C -3.95255 1.34364 -1.41278 0
M  V30 5 C -3.24565 1.20019 -0.214747 0
M  V30 6 C -3.77834 1.82591 0.880407 0
M  V30 7 C -4.94959 2.55422 0.785648 0
M  V30 8 N -2.05034 0.438213 -0.20164 0
M  V30 9 C -0.819155 1.06868 0.0516399 0
M  V30 10 O -0.83103 2.29486 0.35582 0
M  V30 11 C 0.474227 0.35349 -0.0342367 0
M  V30 12 O 0.48352 -0.841829 -0.357452 0
M  V30 13 N 1.64974 1.05219 0.249372 0
M  V30 14 C 2.98154 0.557716 0.196687 0
M  V30 15 C 3.37078 -0.481444 -0.616236 0
M  V30 16 C 4.69749 -0.932583 -0.632146 0
M  V30 17 C 5.675 -0.366981 0.157886 0
M  V30 18 C 5.27351 0.671148 0.968515 0
M  V30 19 C 3.97545 1.12796 0.996459 0
M  V30 20 S 7.32993 -0.935703 0.0783866 0
M  V30 21 O 8.3091 0.134321 0.502485 0
M  V30 22 O 7.67503 -1.26026 -1.36439 0
M  V30 23 N 7.62434 -2.32603 1.01096 0
M  V30 24 C -2.14143 -0.957875 -0.409619 0
M  V30 25 C -2.18106 -1.56515 -1.64616 0
M  V30 26 C -2.29305 -2.92814 -1.81679 0
M  V30 27 C -2.36849 -3.73213 -0.7045 0
M  V30 28 C -2.33008 -3.13863 0.555406 0
M  V30 29 C -2.21961 -1.78818 0.720887 0
M  V30 30 H -6.83455 4.41681 -0.80743 0
M  V30 31 H -7.74949 2.99567 -0.232505 0
M  V30 32 H -5.63115 2.14918 -2.45814 0
M  V30 33 H -3.58639 0.877236 -2.31543 0
M  V30 34 H -3.25844 1.73464 1.83028 0
M  V30 35 H -5.36101 3.04902 1.66943 0
M  V30 36 H 1.54891 2.08125 0.540289 0
M  V30 37 H 2.65759 -0.961767 -1.26039 0
M  V30 38 H 4.99724 -1.75616 -1.28288 0
M  V30 39 H 6.04541 1.11891 1.59023 0
M  V30 40 H 3.67282 1.93811 1.63101 0
M  V30 41 H 7.73919 -2.19769 2.01798 0
M  V30 42 H 8.49793 -2.76704 0.636711 0
M  V30 43 H -2.11651 -0.953799 -2.52749 0
M  V30 44 H -2.32394 -3.36851 -2.79973 0
M  V30 45 H -2.4556 -4.80949 -0.817024 0
M  V30 46 H -2.38884 -3.79104 1.4265 0
M  V30 47 H -2.18996 -1.32356 1.70899 0
M  V30 END ATOM
M  V30 BEGIN BOND
M  V30 1 1 1 2
M  V30 2 2 2 3
M  V30 3 1 3 4
M  V30 4 2 4 5
M  V30 5 1 5 6
M  V30 6 2 6 7
M  V30 7 1 5 8
M  V30 8 1 8 9
M  V30 9 2 9 10
M  V30 10 1 9 11
M  V30 11 2 11 12
M  V30 12 1 11 13
M  V30 13 1 13 14
M  V30 14 2 14 15
M  V30 15 1 15 16
M  V30 16 2 16 17
M  V30 17 1 17 18
M  V30 18 2 18 19
M  V30 19 1 17 20
M  V30 20 2 20 21
M  V30 21 2 20 22
M  V30 22 1 20 23
M  V30 23 1 8 24
M  V30 24 2 24 25
M  V30 25 1 25 26
M  V30 26 2 26 27
M  V30 27 1 27 28
M  V30 28 2 28 29
M  V30 29 1 7 2
M  V30 30 1 19 14
M  V30 31 1 29 24
M  V30 32 1 1 30
M  V30 33 1 1 31
M  V30 34 1 3 32
M  V30 35 1 4 33
M  V30 36 1 6 34
M  V30 37 1 7 35
M  V30 38 1 13 36
M  V30 39 1 15 37
M  V30 40 1 16 38
M  V30 41 1 18 39
M  V30 42 1 19 40
M  V30 43 1 23 41
M  V30 44 1 23 42
M  V30 45 1 25 43
M  V30 46 1 26 44
M  V30 47 1 27 45
M  V30 48 1 28 46
M  V30 49 1 29 47
M  V30 END BOND
M  V30 END CTAB
M  END
