
     RDKit          3D

  0  0  0  0  0  0  0  0  0  0999 V3000
M  V30 BEGIN CTAB
M  V30 COUNTS 47 48 0 0 0
M  V30 BEGIN ATOM
M  V30 1 N -4.97706 0.764223 0.228372 0
M  V30 2 C -3.59855 0.604444 0.644583 0
M  V30 3 C -2.7499 1.49256 -0.194486 0
M  V30 4 C -1.25507 1.22331 -0.0655252 0
M  V30 5 C -0.870612 1.73051 1.28981 0
M  V30 6 C -0.630789 2.00323 -1.20747 0
M  V30 7 N -0.952394 -0.215336 -0.243641 0
M  V30 8 C -2.07003 -1.08768 -0.424059 0
M  V30 9 C -3.14523 -0.819532 0.635436 0
M  V30 10 C -2.70458 -0.910523 -1.81164 0
M  V30 11 C -1.79085 -2.55851 -0.299557 0
M  V30 12 C 0.413864 -0.567373 -0.201447 0
M  V30 13 S 0.854925 -2.13318 -0.51199 0
M  V30 14 N 1.48757 0.302869 0.0140496 0
M  V30 15 C 2.87389 -0.0804613 0.0743888 0
M  V30 16 C 3.34375 -1.21112 0.673591 0
M  V30 17 C 4.70813 -1.53813 0.659629 0
M  V30 18 C 5.63171 -0.729214 0.0403314 0
M  V30 19 C 5.15639 0.415246 -0.564704 0
M  V30 20 C 3.81905 0.742708 -0.555775 0
M  V30 21 Cl 6.33369 1.44621 -1.35306 0
M  V30 22 N 7.01331 -1.06657 0.0296558 0
M  V30 23 H -5.40263 1.49676 0.835327 0
M  V30 24 H -5.0059 1.18649 -0.74245 0
M  V30 25 H -3.52179 0.963744 1.71494 0
M  V30 26 H -3.07218 1.63099 -1.23935 0
M  V30 27 H -2.87276 2.53397 0.24936 0
M  V30 28 H -1.74517 1.96941 1.94449 0
M  V30 29 H -0.275587 0.997353 1.88946 0
M  V30 30 H -0.284636 2.68418 1.26043 0
M  V30 31 H 0.0433828 1.36713 -1.84422 0
M  V30 32 H -1.40817 2.40548 -1.9241 0
M  V30 33 H -0.105995 2.9169 -0.855865 0
M  V30 34 H -2.68872 -1.12995 1.60505 0
M  V30 35 H -4.00458 -1.47929 0.411505 0
M  V30 36 H -2.11454 -0.203091 -2.4335 0
M  V30 37 H -2.71867 -1.8591 -2.38799 0
M  V30 38 H -3.76789 -0.607919 -1.72809 0
M  V30 39 H -1.42821 -3.03803 -1.23507 0
M  V30 40 H -2.8564 -3.01912 -0.210311 0
M  V30 41 H -1.32944 -2.88342 0.629651 0
M  V30 42 H 1.33929 1.31816 0.154998 0
M  V30 43 H 2.70753 -1.88747 1.20217 0
M  V30 44 H 5.06704 -2.43852 1.13801 0
M  V30 45 H 3.44402 1.64776 -1.03434 0
M  V30 46 H 7.448 -1.6758 -0.702464 0
M  V30 47 H 7.66279 -0.704292 0.779201 0
M  V30 END ATOM
M  V30 BEGIN BOND
M  V30 1 1 1 2
M  V30 2 1 2 3
M  V30 3 1 3 4
M  V30 4 1 4 5
M  V30 5 1 4 6
M  V30 6 1 4 7
M  V30 7 1 7 8
M  V30 8 1 8 9
M  V30 9 1 8 10
M  V30 10 1 8 11
M  V30 11 1 7 12
M  V30 12 2 12 13
M  V30 13 1 12 14
M  V30 14 1 14 15
M  V30 15 2 15 16
M  V30 16 1 16 17
M  V30 17 2 17 18
M  V30 18 1 18 19
M  V30 19 2 19 20
M  V30 20 1 19 21
M  V30 21 1 18 22
M  V30 22 1 9 2
M  V30 23 1 20 15
M  V30 24 1 1 23
M  V30 25 1 1 24
M  V30 26 1 2 25
M  V30 27 1 3 26
M  V30 28 1 3 27
M  V30 29 1 5 28
M  V30 30 1 5 29
M  V30 31 1 5 30
M  V30 32 1 6 31
M  V30 33 1 6 32
M  V30 34 1 6 33
M  V30 35 1 9 34
M  V30 36 1 9 35
M  V30 37 1 10 36
M  V30 38 1 10 37
M  V30 39 1 10 38
M  V30 40 1 11 39
M  V30 41 1 11 40
M  V30 42 1 11 41
M  V30 43 1 14 42
M  V30 44 1 16 43
M  V30 45 1 17 44
M  V30 46 1 20 45
M  V30 47 1 22 46
M  V30 48 1 22 47
M  V30 END BOND
M  V30 END CTAB
M  END
