
     RDKit          3D

  0  0  0  0  0  0  0  0  0  0999 V3000
M  V30 BEGIN CTAB
M  V30 COUNTS 60 64 0 0 0
M  V30 BEGIN ATOM
M  V30 1 N 8.22371 -0.31779 -2.73026 0
M  V30 2 C 7.243 -0.226165 -2.07721 0
M  V30 3 C 5.99054 -0.105639 -1.2977 0
M  V30 4 C 6.018 0.0845747 0.0408071 0
M  V30 5 N 7.04841 0.184638 1.02542 0
M  V30 6 C 8.40402 0.0441109 0.736789 0
M  V30 7 C 9.00197 -1.21508 0.713911 0
M  V30 8 C 10.3387 -1.41448 0.471719 0
M  V30 9 C 11.151 -0.329343 0.236571 0
M  V30 10 C 10.5987 0.934095 0.250455 0
M  V30 11 C 9.2381 1.11976 0.498038 0
M  V30 12 S 4.30506 0.17328 0.410616 0
M  V30 13 C 3.67454 -0.0360299 -1.14186 0
M  V30 14 C 4.79425 -0.169327 -1.91422 0
M  V30 15 N 4.61691 -0.371583 -3.35139 0
M  V30 16 C 2.26644 -0.0910345 -1.55916 0
M  V30 17 O 1.9937 -0.306192 -2.77855 0
M  V30 18 C 1.15519 0.0857285 -0.646363 0
M  V30 19 C -0.000751314 -0.611767 -0.959204 0
M  V30 20 C -1.1276 -0.501423 -0.160553 0
M  V30 21 C -1.16683 0.280154 0.95176 0
M  V30 22 C 0.0113102 0.977038 1.25097 0
M  V30 23 C 1.14974 0.877365 0.460713 0
M  V30 24 C -2.29595 0.46257 1.80907 0
M  V30 25 O -2.10932 0.766816 3.02605 0
M  V30 26 C -3.67668 0.308411 1.31127 0
M  V30 27 S -4.26205 -0.00171468 -0.244491 0
M  V30 28 C -5.98229 0.0221363 0.0696287 0
M  V30 29 C -6.00531 0.277235 1.40322 0
M  V30 30 C -4.83114 0.42443 2.04422 0
M  V30 31 N -4.72165 0.698063 3.47716 0
M  V30 32 C -7.28815 0.398288 2.14045 0
M  V30 33 N -8.29151 0.503247 2.75695 0
M  V30 34 N -6.98408 -0.185659 -0.922603 0
M  V30 35 C -8.35547 -0.191612 -0.663744 0
M  V30 36 C -8.99567 -1.38524 -0.299841 0
M  V30 37 C -10.3536 -1.44852 -0.070625 0
M  V30 38 C -11.149 -0.328074 -0.190811 0
M  V30 39 C -10.5358 0.851907 -0.547541 0
M  V30 40 C -9.17841 0.917612 -0.777146 0
M  V30 41 H 6.7367 0.382827 2.0478 0
M  V30 42 H 8.33518 -2.05872 0.904096 0
M  V30 43 H 10.7379 -2.42044 0.468523 0
M  V30 44 H 12.2296 -0.471458 0.0401085 0
M  V30 45 H 11.2671 1.76622 0.0610643 0
M  V30 46 H 8.81936 2.11961 0.506026 0
M  V30 47 H 4.91093 -1.26213 -3.80395 0
M  V30 48 H 4.19716 0.373468 -3.92125 0
M  V30 49 H -0.0374397 -1.25143 -1.83199 0
M  V30 50 H -1.98406 -1.10682 -0.476252 0
M  V30 51 H 0.0566548 1.62067 2.12347 0
M  V30 52 H 2.04446 1.43714 0.705025 0
M  V30 53 H -5.07009 1.5868 3.8865 0
M  V30 54 H -4.27876 -0.0394807 4.06563 0
M  V30 55 H -6.61438 -0.341435 -1.91171 0
M  V30 56 H -8.35022 -2.26687 -0.208735 0
M  V30 57 H -10.8263 -2.3932 0.212024 0
M  V30 58 H -12.2163 -0.402714 -0.00547353 0
M  V30 59 H -11.1594 1.73077 -0.641703 0
M  V30 60 H -8.71024 1.84242 -1.05523 0
M  V30 END ATOM
M  V30 BEGIN BOND
M  V30 1 3 1 2
M  V30 2 1 2 3
M  V30 3 2 3 4
M  V30 4 1 4 5
M  V30 5 1 5 6
M  V30 6 2 6 7
M  V30 7 1 7 8
M  V30 8 2 8 9
M  V30 9 1 9 10
M  V30 10 2 10 11
M  V30 11 1 4 12
M  V30 12 1 12 13
M  V30 13 2 13 14
M  V30 14 1 14 15
M  V30 15 1 13 16
M  V30 16 2 16 17
M  V30 17 1 16 18
M  V30 18 2 18 19
M  V30 19 1 19 20
M  V30 20 2 20 21
M  V30 21 1 21 22
M  V30 22 2 22 23
M  V30 23 1 21 24
M  V30 24 2 24 25
M  V30 25 1 24 26
M  V30 26 1 26 27
M  V30 27 1 27 28
M  V30 28 2 28 29
M  V30 29 1 29 30
M  V30 30 1 30 31
M  V30 31 1 29 32
M  V30 32 3 32 33
M  V30 33 1 28 34
M  V30 34 1 34 35
M  V30 35 2 35 36
M  V30 36 1 36 37
M  V30 37 2 37 38
M  V30 38 1 38 39
M  V30 39 2 39 40
M  V30 40 1 14 3
M  V30 41 1 23 18
M  V30 42 2 30 26
M  V30 43 1 40 35
M  V30 44 1 11 6
M  V30 45 1 5 41
M  V30 46 1 7 42
M  V30 47 1 8 43
M  V30 48 1 9 44
M  V30 49 1 10 45
M  V30 50 1 11 46
M  V30 51 1 15 47
M  V30 52 1 15 48
M  V30 53 1 19 49
M  V30 54 1 20 50
M  V30 55 1 22 51
M  V30 56 1 23 52
M  V30 57 1 31 53
M  V30 58 1 31 54
M  V30 59 1 34 55
M  V30 60 1 36 56
M  V30 61 1 37 57
M  V30 62 1 38 58
M  V30 63 1 39 59
M  V30 64 1 40 60
M  V30 END BOND
M  V30 END CTAB
M  END
