
     RDKit          3D

  0  0  0  0  0  0  0  0  0  0999 V3000
M  V30 BEGIN CTAB
M  V30 COUNTS 57 58 0 0 0
M  V30 BEGIN ATOM
M  V30 1 O 2.7143 0.372599 -1.11824 0
M  V30 2 C 3.84323 -0.105127 -0.864606 0
M  V30 3 C 4.92184 0.778666 -0.42311 0
M  V30 4 C 6.1746 0.295265 -0.134621 0
M  V30 5 C 7.21048 1.12736 0.28691 0
M  V30 6 C 6.9814 2.4699 0.420444 0
M  V30 7 C 5.72515 2.96675 0.132929 0
M  V30 8 C 4.7028 2.13233 -0.285052 0
M  V30 9 N 8.04242 3.31161 0.850618 0
M  V30 10 O 4.0174 -1.46059 -1.01597 0
M  V30 11 C 3.05278 -2.384 -1.43029 0
M  V30 12 Si 1.55902 -2.42565 -0.264435 0 VAL=4
M  V30 13 O 0.423267 -1.36729 -0.908271 0
M  V30 14 Si -1.01906 -1.17268 -0.0226604 0 VAL=4
M  V30 15 C -1.20463 0.655013 0.308645 0
M  V30 16 O -2.50881 1.05098 0.0572407 0
M  V30 17 C -3.66566 0.642962 0.650604 0
M  V30 18 O -3.58808 -0.209813 1.56336 0
M  V30 19 C -4.99146 1.14323 0.283032 0
M  V30 20 C -6.13233 0.696071 0.916234 0
M  V30 21 C -7.38884 1.16489 0.573297 0
M  V30 22 C -7.55626 2.10555 -0.422744 0
M  V30 23 C -6.4169 2.55548 -1.05872 0
M  V30 24 C -5.16492 2.08375 -0.712048 0
M  V30 25 N -8.85556 2.58631 -0.773175 0
M  V30 26 C -2.50101 -1.70035 -1.06681 0
M  V30 27 C -1.06039 -2.06115 1.58262 0
M  V30 28 C 0.956489 -4.19136 -0.206022 0
M  V30 29 C 2.16252 -1.92794 1.41658 0
M  V30 30 H 6.36287 -0.760662 -0.237315 0
M  V30 31 H 8.20063 0.750848 0.515758 0
M  V30 32 H 5.56801 4.02718 0.245261 0
M  V30 33 H 3.73483 2.5647 -0.499228 0
M  V30 34 H 7.84858 4.0914 1.50148 0
M  V30 35 H 8.99545 3.12644 0.501625 0
M  V30 36 H 3.53615 -3.38211 -1.46438 0
M  V30 37 H 2.70849 -2.17472 -2.47124 0
M  V30 38 H -0.869844 0.868437 1.35264 0
M  V30 39 H -0.511267 1.23253 -0.338753 0
M  V30 40 H -6.00439 -0.0448653 1.70139 0
M  V30 41 H -8.29363 0.803033 1.08327 0
M  V30 42 H -6.52399 3.28461 -1.83372 0
M  V30 43 H -4.26072 2.43712 -1.21281 0
M  V30 44 H -9.54023 1.90507 -1.15216 0
M  V30 45 H -9.16267 3.5757 -0.673919 0
M  V30 46 H -2.12353 -2.34061 -1.89331 0
M  V30 47 H -3.02346 -0.816384 -1.48224 0
M  V30 48 H -3.1911 -2.2678 -0.416458 0
M  V30 49 H -2.03518 -2.61984 1.64859 0
M  V30 50 H -0.296245 -2.85386 1.71488 0
M  V30 51 H -1.07562 -1.34744 2.42244 0
M  V30 52 H 1.40996 -4.74117 -1.05019 0
M  V30 53 H -0.153874 -4.25986 -0.208019 0
M  V30 54 H 1.35605 -4.66217 0.715059 0
M  V30 55 H 3.16584 -1.47944 1.325 0
M  V30 56 H 1.46061 -1.24159 1.94646 0
M  V30 57 H 2.28451 -2.80733 2.10056 0
M  V30 END ATOM
M  V30 BEGIN BOND
M  V30 1 2 1 2
M  V30 2 1 2 3
M  V30 3 2 3 4
M  V30 4 1 4 5
M  V30 5 2 5 6
M  V30 6 1 6 7
M  V30 7 2 7 8
M  V30 8 1 6 9
M  V30 9 1 2 10
M  V30 10 1 10 11
M  V30 11 1 11 12
M  V30 12 1 12 13
M  V30 13 1 13 14
M  V30 14 1 14 15
M  V30 15 1 15 16
M  V30 16 1 16 17
M  V30 17 2 17 18
M  V30 18 1 17 19
M  V30 19 2 19 20
M  V30 20 1 20 21
M  V30 21 2 21 22
M  V30 22 1 22 23
M  V30 23 2 23 24
M  V30 24 1 22 25
M  V30 25 1 14 26
M  V30 26 1 14 27
M  V30 27 1 12 28
M  V30 28 1 12 29
M  V30 29 1 8 3
M  V30 30 1 24 19
M  V30 31 1 4 30
M  V30 32 1 5 31
M  V30 33 1 7 32
M  V30 34 1 8 33
M  V30 35 1 9 34
M  V30 36 1 9 35
M  V30 37 1 11 36
M  V30 38 1 11 37
M  V30 39 1 15 38
M  V30 40 1 15 39
M  V30 41 1 20 40
M  V30 42 1 21 41
M  V30 43 1 23 42
M  V30 44 1 24 43
M  V30 45 1 25 44
M  V30 46 1 25 45
M  V30 47 1 26 46
M  V30 48 1 26 47
M  V30 49 1 26 48
M  V30 50 1 27 49
M  V30 51 1 27 50
M  V30 52 1 27 51
M  V30 53 1 28 52
M  V30 54 1 28 53
M  V30 55 1 28 54
M  V30 56 1 29 55
M  V30 57 1 29 56
M  V30 58 1 29 57
M  V30 END BOND
M  V30 END CTAB
M  END
