
     RDKit          3D

  0  0  0  0  0  0  0  0  0  0999 V3000
M  V30 BEGIN CTAB
M  V30 COUNTS 25 25 0 0 0
M  V30 BEGIN ATOM
M  V30 1 N 0.481026 2.52174 0.0133543 0
M  V30 2 C 1.37354 1.41114 0.087162 0
M  V30 3 C 0.769208 0.0772741 -0.0483574 0
M  V30 4 C 1.54253 -1.10123 0.033806 0
M  V30 5 C 3.01243 -1.10112 0.241183 0
M  V30 6 O 0.719383 -2.0998 -0.105093 0
M  V30 7 C -0.508474 -1.67431 -0.269178 0
M  V30 8 C -0.537748 -0.26447 -0.242444 0
M  V30 9 S -1.92025 0.741435 -0.461492 0
M  V30 10 O -1.81567 1.8048 -1.47575 0
M  V30 11 O -3.03467 -0.198578 -0.990815 0
M  V30 12 N -2.59035 1.33652 1.01667 0
M  V30 13 C -1.72983 -2.50675 -0.459602 0
M  V30 14 H 0.254038 2.90081 0.945615 0
M  V30 15 H 0.744837 3.25286 -0.684636 0
M  V30 16 H 2.12262 1.55759 -0.745044 0
M  V30 17 H 1.94473 1.51761 1.04006 0
M  V30 18 H 3.34376 -2.1472 0.442755 0
M  V30 19 H 3.56483 -0.725457 -0.639803 0
M  V30 20 H 3.30601 -0.514782 1.13786 0
M  V30 21 H -3.04801 2.24594 0.910942 0
M  V30 22 H -1.96538 1.2224 1.81808 0
M  V30 23 H -1.43227 -3.58993 -0.357257 0
M  V30 24 H -2.47867 -2.23712 0.298817 0
M  V30 25 H -2.11764 -2.42936 -1.50683 0
M  V30 END ATOM
M  V30 BEGIN BOND
M  V30 1 1 1 2
M  V30 2 1 2 3
M  V30 3 2 3 4
M  V30 4 1 4 5
M  V30 5 1 4 6
M  V30 6 1 6 7
M  V30 7 2 7 8
M  V30 8 1 8 9
M  V30 9 2 9 10
M  V30 10 2 9 11
M  V30 11 1 9 12
M  V30 12 1 7 13
M  V30 13 1 8 3
M  V30 14 1 1 14
M  V30 15 1 1 15
M  V30 16 1 2 16
M  V30 17 1 2 17
M  V30 18 1 5 18
M  V30 19 1 5 19
M  V30 20 1 5 20
M  V30 21 1 12 21
M  V30 22 1 12 22
M  V30 23 1 13 23
M  V30 24 1 13 24
M  V30 25 1 13 25
M  V30 END BOND
M  V30 END CTAB
M  END
