
     RDKit          3D

  0  0  0  0  0  0  0  0  0  0999 V3000
M  V30 BEGIN CTAB
M  V30 COUNTS 47 51 0 0 0
M  V30 BEGIN ATOM
M  V30 1 N -7.40822 -0.341486 1.63305 0
M  V30 2 C -6.67457 -0.116737 0.42578 0
M  V30 3 C -6.11201 1.29308 0.349756 0
M  V30 4 C -4.93491 1.0709 -0.609718 0
M  V30 5 N -4.36768 -0.14258 -0.0882421 0
M  V30 6 C -5.45749 -1.00309 0.285489 0
M  V30 7 C -2.99226 -0.422351 0.0281558 0
M  V30 8 C -2.56005 -1.6401 0.558315 0
M  V30 9 C -1.20832 -1.91103 0.670637 0
M  V30 10 C -0.248044 -1.00721 0.271403 0
M  V30 11 N 1.0833 -0.983446 0.255032 0
M  V30 12 C 1.56095 0.174223 -0.252973 0
M  V30 13 N 0.470677 0.881313 -0.557036 0
M  V30 14 C -0.667469 0.178776 -0.244937 0
M  V30 15 C -2.01449 0.465187 -0.364047 0
M  V30 16 C 2.9495 0.554625 -0.425462 0
M  V30 17 C 3.92564 -0.368814 -0.0264222 0
M  V30 18 N 3.49498 -1.60739 0.516666 0
M  V30 19 C 5.28733 -0.0968954 -0.151403 0
M  V30 20 C 6.20247 -1.04159 0.257189 0
M  V30 21 C 7.53722 -0.745462 0.121736 0
M  V30 22 C 7.97035 0.465341 -0.409248 0
M  V30 23 C 7.0299 1.38674 -0.807544 0
M  V30 24 C 5.68332 1.11196 -0.681369 0
M  V30 25 N 4.74908 1.98585 -1.05896 0
M  V30 26 C 3.42068 1.72657 -0.939646 0
M  V30 27 O 2.57958 2.59942 -1.31719 0
M  V30 28 H -6.82384 -0.545382 2.46587 0
M  V30 29 H -8.15119 -1.047 1.44933 0
M  V30 30 H -7.38611 -0.273672 -0.432038 0
M  V30 31 H -5.70805 1.57603 1.35592 0
M  V30 32 H -6.82962 2.0176 -0.039615 0
M  V30 33 H -4.26288 1.92911 -0.626272 0
M  V30 34 H -5.40011 0.865425 -1.60752 0
M  V30 35 H -5.25346 -1.59682 1.19163 0
M  V30 36 H -5.65025 -1.73367 -0.551516 0
M  V30 37 H -3.28705 -2.37367 0.882104 0
M  V30 38 H -0.838371 -2.85933 1.08334 0
M  V30 39 H 0.397052 1.84349 -0.977136 0
M  V30 40 H -2.29828 1.42082 -0.780523 0
M  V30 41 H 3.23977 -1.69452 1.5203 0
M  V30 42 H 3.41478 -2.47379 -0.0522659 0
M  V30 43 H 5.83205 -1.96244 0.661204 0
M  V30 44 H 8.25817 -1.46682 0.433626 0
M  V30 45 H 9.03776 0.685992 -0.510505 0
M  V30 46 H 7.36709 2.32733 -1.22004 0
M  V30 47 H 5.04306 2.89554 -1.45777 0
M  V30 END ATOM
M  V30 BEGIN BOND
M  V30 1 1 1 2
M  V30 2 1 2 3
M  V30 3 1 3 4
M  V30 4 1 4 5
M  V30 5 1 5 6
M  V30 6 1 5 7
M  V30 7 2 7 8
M  V30 8 1 8 9
M  V30 9 2 9 10
M  V30 10 1 10 11
M  V30 11 2 11 12
M  V30 12 1 12 13
M  V30 13 1 13 14
M  V30 14 2 14 15
M  V30 15 1 12 16
M  V30 16 2 16 17
M  V30 17 1 17 18
M  V30 18 1 17 19
M  V30 19 2 19 20
M  V30 20 1 20 21
M  V30 21 2 21 22
M  V30 22 1 22 23
M  V30 23 2 23 24
M  V30 24 1 24 25
M  V30 25 1 25 26
M  V30 26 2 26 27
M  V30 27 1 6 2
M  V30 28 1 15 7
M  V30 29 1 26 16
M  V30 30 1 14 10
M  V30 31 1 24 19
M  V30 32 1 1 28
M  V30 33 1 1 29
M  V30 34 1 2 30
M  V30 35 1 3 31
M  V30 36 1 3 32
M  V30 37 1 4 33
M  V30 38 1 4 34
M  V30 39 1 6 35
M  V30 40 1 6 36
M  V30 41 1 8 37
M  V30 42 1 9 38
M  V30 43 1 13 39
M  V30 44 1 15 40
M  V30 45 1 18 41
M  V30 46 1 18 42
M  V30 47 1 20 43
M  V30 48 1 21 44
M  V30 49 1 22 45
M  V30 50 1 23 46
M  V30 51 1 25 47
M  V30 END BOND
M  V30 END CTAB
M  END
