
     RDKit          3D

  0  0  0  0  0  0  0  0  0  0999 V3000
M  V30 BEGIN CTAB
M  V30 COUNTS 23 23 0 0 0
M  V30 BEGIN ATOM
M  V30 1 N 1.2011 2.51576 -0.923893 0
M  V30 2 C 1.69145 1.28133 -0.419681 0
M  V30 3 C 3.0483 1.13648 -0.217432 0
M  V30 4 C 3.57377 -0.0440315 0.27095 0
M  V30 5 C 2.68104 -1.06061 0.543375 0
M  V30 6 C 1.32074 -0.918854 0.341875 0
M  V30 7 C 0.804378 0.264142 -0.146417 0
M  V30 8 S -0.950904 0.427613 -0.399349 0
M  V30 9 C -1.78552 -1.08973 0.0619827 0
M  V30 10 C -3.27178 -0.89982 -0.171049 0
M  V30 11 N -3.81907 0.178476 0.604372 0
M  V30 12 Br 3.39768 -2.70234 1.22102 0
M  V30 13 H 0.803412 2.65433 -1.87396 0
M  V30 14 H 1.2418 3.34664 -0.296551 0
M  V30 15 H 3.75087 1.9426 -0.434049 0
M  V30 16 H 4.64836 -0.156256 0.430214 0
M  V30 17 H 0.662773 -1.75506 0.574369 0
M  V30 18 H -1.60259 -1.36038 1.13484 0
M  V30 19 H -1.48236 -1.97013 -0.527478 0
M  V30 20 H -3.42324 -0.708428 -1.2536 0
M  V30 21 H -3.83777 -1.84097 0.0485564 0
M  V30 22 H -4.31057 0.865725 -0.00879837 0
M  V30 23 H -4.34186 -0.106476 1.4407 0
M  V30 END ATOM
M  V30 BEGIN BOND
M  V30 1 1 1 2
M  V30 2 2 2 3
M  V30 3 1 3 4
M  V30 4 2 4 5
M  V30 5 1 5 6
M  V30 6 2 6 7
M  V30 7 1 7 8
M  V30 8 1 8 9
M  V30 9 1 9 10
M  V30 10 1 10 11
M  V30 11 1 5 12
M  V30 12 1 7 2
M  V30 13 1 1 13
M  V30 14 1 1 14
M  V30 15 1 3 15
M  V30 16 1 4 16
M  V30 17 1 6 17
M  V30 18 1 9 18
M  V30 19 1 9 19
M  V30 20 1 10 20
M  V30 21 1 10 21
M  V30 22 1 11 22
M  V30 23 1 11 23
M  V30 END BOND
M  V30 END CTAB
M  END
