
     RDKit          3D

  0  0  0  0  0  0  0  0  0  0999 V3000
M  V30 BEGIN CTAB
M  V30 COUNTS 26 26 0 0 0
M  V30 BEGIN ATOM
M  V30 1 C 3.30365 -1.36016 -0.229674 0
M  V30 2 C 2.45079 -0.200919 -0.762285 0
M  V30 3 O 1.33937 0.0136816 -0.0144641 0
M  V30 4 C 0.000195731 0.0109826 -0.163836 0
M  V30 5 C -0.792958 0.315063 0.976444 0
M  V30 6 C -2.14547 0.321378 0.861903 0
M  V30 7 N -2.95479 0.627741 2.00975 0
M  V30 8 C -2.81042 0.0445056 -0.319867 0
M  V30 9 C -2.01709 -0.245964 -1.40542 0
M  V30 10 C -0.621859 -0.268867 -1.35314 0
M  V30 11 F 0.0710712 -0.572663 -2.5028 0
M  V30 12 N -4.23262 0.0617806 -0.397636 0
M  V30 13 C 3.42185 1.00628 -0.724086 0
M  V30 14 H 2.92004 -2.33233 -0.624522 0
M  V30 15 H 4.32412 -1.23743 -0.626791 0
M  V30 16 H 3.33818 -1.31821 0.867719 0
M  V30 17 H 2.29243 -0.460313 -1.82143 0
M  V30 18 H -0.255296 0.531115 1.90063 0
M  V30 19 H -2.66848 0.386949 2.97766 0
M  V30 20 H -3.8725 1.11149 1.89629 0
M  V30 21 H -2.47738 -0.469963 -2.35344 0
M  V30 22 H -4.79842 -0.14153 0.478099 0
M  V30 23 H -4.76289 0.260426 -1.2558 0
M  V30 24 H 3.04638 1.79516 -1.39503 0
M  V30 25 H 4.43718 0.68924 -1.02599 0
M  V30 26 H 3.46493 1.43257 0.296699 0
M  V30 END ATOM
M  V30 BEGIN BOND
M  V30 1 1 1 2
M  V30 2 1 2 3
M  V30 3 1 3 4
M  V30 4 2 4 5
M  V30 5 1 5 6
M  V30 6 1 6 7
M  V30 7 2 6 8
M  V30 8 1 8 9
M  V30 9 2 9 10
M  V30 10 1 10 11
M  V30 11 1 8 12
M  V30 12 1 2 13
M  V30 13 1 10 4
M  V30 14 1 1 14
M  V30 15 1 1 15
M  V30 16 1 1 16
M  V30 17 1 2 17
M  V30 18 1 5 18
M  V30 19 1 7 19
M  V30 20 1 7 20
M  V30 21 1 9 21
M  V30 22 1 12 22
M  V30 23 1 12 23
M  V30 24 1 13 24
M  V30 25 1 13 25
M  V30 26 1 13 26
M  V30 END BOND
M  V30 END CTAB
M  END
