
     RDKit          3D

  0  0  0  0  0  0  0  0  0  0999 V3000
M  V30 BEGIN CTAB
M  V30 COUNTS 25 26 0 0 0
M  V30 BEGIN ATOM
M  V30 1 C -2.12409 -2.15987 -0.433089 0
M  V30 2 O -1.6433 -1.31051 0.597538 0
M  V30 3 C -1.32081 0.00313269 0.433704 0
M  V30 4 C -2.34218 0.952313 0.508279 0
M  V30 5 Br -4.14794 0.361332 0.841513 0
M  V30 6 C -2.04411 2.27661 0.344394 0
M  V30 7 C -0.766707 2.71423 0.107244 0
M  V30 8 C 0.258677 1.78704 0.0317986 0
M  V30 9 C -0.0420227 0.424467 0.200202 0
M  V30 10 C 1.02449 -0.447808 0.134738 0
M  V30 11 N 0.807066 -1.83803 0.338287 0
M  V30 12 C 2.3309 0.00715879 -0.0917526 0
M  V30 13 N 3.34817 -0.985927 -0.140515 0
M  V30 14 C 2.55089 1.33252 -0.248271 0
M  V30 15 N 1.52557 2.19489 -0.185039 0
M  V30 16 Br -0.359868 4.56101 -0.121747 0
M  V30 17 H -1.66773 -1.96248 -1.42154 0
M  V30 18 H -3.22072 -2.05583 -0.573403 0
M  V30 19 H -1.87194 -3.19623 -0.133575 0
M  V30 20 H -2.83634 3.02053 0.401307 0
M  V30 21 H 0.958407 -2.47026 -0.46981 0
M  V30 22 H 0.522598 -2.17549 1.25362 0
M  V30 23 H 3.96322 -1.00256 -0.979016 0
M  V30 24 H 3.52388 -1.69646 0.598011 0
M  V30 25 H 3.57393 1.66622 -0.42438 0
M  V30 END ATOM
M  V30 BEGIN BOND
M  V30 1 1 1 2
M  V30 2 1 2 3
M  V30 3 2 3 4
M  V30 4 1 4 5
M  V30 5 1 4 6
M  V30 6 2 6 7
M  V30 7 1 7 8
M  V30 8 2 8 9
M  V30 9 1 9 10
M  V30 10 1 10 11
M  V30 11 2 10 12
M  V30 12 1 12 13
M  V30 13 1 12 14
M  V30 14 2 14 15
M  V30 15 1 7 16
M  V30 16 1 9 3
M  V30 17 1 15 8
M  V30 18 1 1 17
M  V30 19 1 1 18
M  V30 20 1 1 19
M  V30 21 1 6 20
M  V30 22 1 11 21
M  V30 23 1 11 22
M  V30 24 1 13 23
M  V30 25 1 13 24
M  V30 26 1 14 25
M  V30 END BOND
M  V30 END CTAB
M  END
