
     RDKit          3D

  0  0  0  0  0  0  0  0  0  0999 V3000
M  V30 BEGIN CTAB
M  V30 COUNTS 45 46 0 0 0
M  V30 BEGIN ATOM
M  V30 1 N -0.262813 -5.03449 1.12214 0
M  V30 2 C -0.187439 -3.97518 0.579722 0
M  V30 3 C -0.0431215 -2.70706 -0.0875689 0
M  V30 4 C 1.21603 -2.54253 -0.576146 0
M  V30 5 N 1.56065 -1.37847 -1.25738 0
M  V30 6 C 2.38624 -0.407204 -0.601107 0
M  V30 7 C 2.77348 0.761514 -1.21055 0
M  V30 8 C 3.56892 1.69973 -0.580131 0
M  V30 9 C 3.99962 1.46422 0.718275 0
M  V30 10 C 3.62021 0.291207 1.35142 0
M  V30 11 C 2.83222 -0.609654 0.690075 0
M  V30 12 S 5.00423 2.64809 1.51395 0
M  V30 13 O 4.77122 2.58061 3.01216 0
M  V30 14 O 4.58986 4.01013 1.02945 0
M  V30 15 N 6.6823 2.36257 1.25062 0
M  V30 16 C -1.04842 -1.73731 -0.237283 0
M  V30 17 O -0.571199 -0.668565 -0.916666 0
M  V30 18 N -2.38097 -1.54052 0.0985645 0
M  V30 19 C -2.87906 -0.21502 -0.39115 0
M  V30 20 C -2.89584 0.109451 -1.70425 0
M  V30 21 C -3.38346 1.38254 -2.0686 0
M  V30 22 C -3.83167 2.27709 -1.12523 0
M  V30 23 C -3.80319 1.92014 0.205653 0
M  V30 24 C -3.31524 0.647018 0.565942 0
M  V30 25 N -4.32405 3.56644 -1.50987 0
M  V30 26 C -3.37985 -2.21732 0.755422 0
M  V30 27 O -4.53317 -1.59461 0.822663 0
M  V30 28 C -3.39773 -3.51151 1.39832 0
M  V30 29 H 1.97649 -3.33664 -0.434078 0
M  V30 30 H 1.28382 -1.13592 -2.25518 0
M  V30 31 H 2.44593 0.969849 -2.23569 0
M  V30 32 H 3.84622 2.61582 -1.11845 0
M  V30 33 H 3.94671 0.0848397 2.37166 0
M  V30 34 H 2.53244 -1.53957 1.19442 0
M  V30 35 H 7.08279 2.97567 0.517346 0
M  V30 36 H 6.88152 1.38333 0.98339 0
M  V30 37 H -2.54357 -0.595519 -2.43642 0
M  V30 38 H -3.38291 1.60857 -3.12202 0
M  V30 39 H -4.15293 2.61859 0.938898 0
M  V30 40 H -3.3014 0.387274 1.61458 0
M  V30 41 H -4.82471 3.65878 -2.41954 0
M  V30 42 H -4.215 4.4253 -0.93775 0
M  V30 43 H -2.70777 -3.62358 2.27082 0
M  V30 44 H -4.41634 -3.7318 1.86353 0
M  V30 45 H -3.21903 -4.34629 0.668109 0
M  V30 END ATOM
M  V30 BEGIN BOND
M  V30 1 3 1 2
M  V30 2 1 2 3
M  V30 3 2 3 4
M  V30 4 1 4 5
M  V30 5 1 5 6
M  V30 6 2 6 7
M  V30 7 1 7 8
M  V30 8 2 8 9
M  V30 9 1 9 10
M  V30 10 2 10 11
M  V30 11 1 9 12
M  V30 12 2 12 13
M  V30 13 2 12 14
M  V30 14 1 12 15
M  V30 15 1 3 16
M  V30 16 2 16 17
M  V30 17 1 16 18
M  V30 18 1 18 19
M  V30 19 2 19 20
M  V30 20 1 20 21
M  V30 21 2 21 22
M  V30 22 1 22 23
M  V30 23 2 23 24
M  V30 24 1 22 25
M  V30 25 1 18 26
M  V30 26 2 26 27
M  V30 27 1 26 28
M  V30 28 1 11 6
M  V30 29 1 24 19
M  V30 30 1 4 29
M  V30 31 1 5 30
M  V30 32 1 7 31
M  V30 33 1 8 32
M  V30 34 1 10 33
M  V30 35 1 11 34
M  V30 36 1 15 35
M  V30 37 1 15 36
M  V30 38 1 20 37
M  V30 39 1 21 38
M  V30 40 1 23 39
M  V30 41 1 24 40
M  V30 42 1 25 41
M  V30 43 1 25 42
M  V30 44 1 28 43
M  V30 45 1 28 44
M  V30 46 1 28 45
M  V30 END BOND
M  V30 END CTAB
M  END
