
     RDKit          3D

  0  0  0  0  0  0  0  0  0  0999 V3000
M  V30 BEGIN CTAB
M  V30 COUNTS 30 30 0 0 0
M  V30 BEGIN ATOM
M  V30 1 C 2.609 1.31082 0.486614 0
M  V30 2 C 2.28203 -0.0838768 0.00512304 0
M  V30 3 C 0.833239 -0.256159 -0.369252 0
M  V30 4 C -0.132666 -0.0138248 0.705408 0
M  V30 5 C -1.52168 -0.197169 0.238152 0
M  V30 6 C -2.05321 -1.48434 0.398992 0
M  V30 7 C -3.32306 -1.70106 -0.0704182 0
M  V30 8 C -4.02983 -0.681125 -0.672087 0
M  V30 9 N -3.48507 0.538979 -0.806864 0
M  V30 10 C -2.23119 0.808169 -0.359073 0
M  V30 11 N -1.68418 2.11523 -0.461103 0
M  V30 12 N 0.564732 0.48648 -1.55409 0
M  V30 13 C 2.81671 -1.1097 0.950512 0
M  V30 14 H 1.91685 1.71825 1.22367 0
M  V30 15 H 3.60181 1.23364 1.01194 0
M  V30 16 H 2.78112 1.97495 -0.384061 0
M  V30 17 H 2.85709 -0.19992 -0.953611 0
M  V30 18 H 0.748495 -1.35268 -0.677588 0
M  V30 19 H 0.0143197 1.04471 1.08299 0
M  V30 20 H -0.00326902 -0.631984 1.61595 0
M  V30 21 H -1.46978 -2.25749 0.876691 0
M  V30 22 H -3.79547 -2.67619 0.0239003 0
M  V30 23 H -5.03365 -0.909819 -1.02616 0
M  V30 24 H -1.38278 2.55929 0.457788 0
M  V30 25 H -1.56607 2.64329 -1.33589 0
M  V30 26 H 1.06457 1.38748 -1.62163 0
M  V30 27 H 0.566093 -0.0839472 -2.426 0
M  V30 28 H 3.44233 -0.620436 1.7437 0
M  V30 29 H 3.53458 -1.82489 0.449981 0
M  V30 30 H 2.07891 -1.73668 1.4464 0
M  V30 END ATOM
M  V30 BEGIN BOND
M  V30 1 1 1 2
M  V30 2 1 2 3
M  V30 3 1 3 4
M  V30 4 1 4 5
M  V30 5 2 5 6
M  V30 6 1 6 7
M  V30 7 2 7 8
M  V30 8 1 8 9
M  V30 9 2 9 10
M  V30 10 1 10 11
M  V30 11 1 3 12
M  V30 12 1 2 13
M  V30 13 1 10 5
M  V30 14 1 1 14
M  V30 15 1 1 15
M  V30 16 1 1 16
M  V30 17 1 2 17
M  V30 18 1 3 18
M  V30 19 1 4 19
M  V30 20 1 4 20
M  V30 21 1 6 21
M  V30 22 1 7 22
M  V30 23 1 8 23
M  V30 24 1 11 24
M  V30 25 1 11 25
M  V30 26 1 12 26
M  V30 27 1 12 27
M  V30 28 1 13 28
M  V30 29 1 13 29
M  V30 30 1 13 30
M  V30 END BOND
M  V30 END CTAB
M  END
