
     RDKit          3D

  0  0  0  0  0  0  0  0  0  0999 V3000
M  V30 BEGIN CTAB
M  V30 COUNTS 26 26 0 0 0
M  V30 BEGIN ATOM
M  V30 1 N -4.09663 -1.36366 -0.111066 0
M  V30 2 C -3.17545 -1.13659 0.976997 0
M  V30 3 C -1.87916 -0.618929 0.411267 0
M  V30 4 C -0.882456 -1.49681 0.0445171 0
M  V30 5 C 0.296855 -0.951158 -0.474068 0
M  V30 6 C 0.467795 0.404946 -0.616864 0
M  V30 7 C -0.575511 1.25403 -0.229538 0
M  V30 8 C -1.75139 0.752522 0.284964 0
M  V30 9 S 1.90557 1.15745 -1.23242 0
M  V30 10 O 2.69975 0.138858 -2.03852 0
M  V30 11 O 1.55722 2.29345 -2.17965 0
M  V30 12 N 2.86791 1.8112 0.029469 0
M  V30 13 C 3.39698 0.959739 1.01644 0
M  V30 14 S 4.30512 1.5979 2.20715 0
M  V30 15 N 3.15696 -0.421576 0.992484 0
M  V30 16 H -3.58077 -1.89608 -0.840712 0
M  V30 17 H -4.37117 -0.439911 -0.49791 0
M  V30 18 H -3.56998 -0.370037 1.69911 0
M  V30 19 H -2.97346 -2.08606 1.49415 0
M  V30 20 H -1.01206 -2.56458 0.155339 0
M  V30 21 H 1.08672 -1.62751 -0.779134 0
M  V30 22 H -0.47612 2.33254 -0.328403 0
M  V30 23 H -2.57255 1.39479 0.59121 0
M  V30 24 H 3.04945 2.85854 0.044396 0
M  V30 25 H 2.57206 -0.938254 1.70858 0
M  V30 26 H 3.5543 -1.04482 0.241229 0
M  V30 END ATOM
M  V30 BEGIN BOND
M  V30 1 1 1 2
M  V30 2 1 2 3
M  V30 3 2 3 4
M  V30 4 1 4 5
M  V30 5 2 5 6
M  V30 6 1 6 7
M  V30 7 2 7 8
M  V30 8 1 6 9
M  V30 9 2 9 10
M  V30 10 2 9 11
M  V30 11 1 9 12
M  V30 12 1 12 13
M  V30 13 2 13 14
M  V30 14 1 13 15
M  V30 15 1 8 3
M  V30 16 1 1 16
M  V30 17 1 1 17
M  V30 18 1 2 18
M  V30 19 1 2 19
M  V30 20 1 4 20
M  V30 21 1 5 21
M  V30 22 1 7 22
M  V30 23 1 8 23
M  V30 24 1 12 24
M  V30 25 1 15 25
M  V30 26 1 15 26
M  V30 END BOND
M  V30 END CTAB
M  END
