
     RDKit          3D

  0  0  0  0  0  0  0  0  0  0999 V3000
M  V30 BEGIN CTAB
M  V30 COUNTS 16 16 0 0 0
M  V30 BEGIN ATOM
M  V30 1 N 2.80416 -0.00753072 -0.0585631 0
M  V30 2 C 1.39553 0.0322407 -0.0240838 0
M  V30 3 C 0.680578 1.19543 0.0842521 0
M  V30 4 C -0.704874 1.19111 0.11472 0
M  V30 5 I -1.82782 2.95267 0.279688 0
M  V30 6 C -1.35872 -0.0234663 0.0327366 0
M  V30 7 C -0.674569 -1.21687 -0.07732 0
M  V30 8 C 0.712823 -1.16856 -0.104329 0
M  V30 9 Br 1.68306 -2.80988 -0.256317 0
M  V30 10 N -2.77744 -0.029807 0.0637488 0
M  V30 11 H 3.41935 -0.215987 0.757792 0
M  V30 12 H 3.29224 0.187211 -0.977731 0
M  V30 13 H 1.22094 2.14016 0.147307 0
M  V30 14 H -1.20646 -2.15219 -0.139851 0
M  V30 15 H -3.29637 -0.790344 0.554736 0
M  V30 16 H -3.36243 0.715817 -0.396784 0
M  V30 END ATOM
M  V30 BEGIN BOND
M  V30 1 1 1 2
M  V30 2 2 2 3
M  V30 3 1 3 4
M  V30 4 1 4 5
M  V30 5 2 4 6
M  V30 6 1 6 7
M  V30 7 2 7 8
M  V30 8 1 8 9
M  V30 9 1 6 10
M  V30 10 1 8 2
M  V30 11 1 1 11
M  V30 12 1 1 12
M  V30 13 1 3 13
M  V30 14 1 7 14
M  V30 15 1 10 15
M  V30 16 1 10 16
M  V30 END BOND
M  V30 END CTAB
M  END
