
     RDKit          3D

  0  0  0  0  0  0  0  0  0  0999 V3000
M  V30 BEGIN CTAB
M  V30 COUNTS 44 46 0 0 0
M  V30 BEGIN ATOM
M  V30 1 N -4.9805 1.51181 1.84555 0
M  V30 2 C -4.74737 0.317971 1.11273 0
M  V30 3 C -5.77396 -0.55653 0.931318 0
M  V30 4 C -5.5451 -1.71655 0.218572 0
M  V30 5 C -4.31881 -2.0128 -0.310074 0
M  V30 6 C -3.29782 -1.08846 -0.0993056 0
M  V30 7 C -3.50784 0.0689221 0.606387 0
M  V30 8 O -2.06243 -1.37808 -0.626966 0
M  V30 9 C -0.947631 -0.52738 -0.484972 0
M  V30 10 C 0.216983 -1.16994 -1.18782 0
M  V30 11 N 1.42585 -0.383537 -1.10949 0
M  V30 12 C 2.31625 -0.595027 -0.0163478 0
M  V30 13 N 2.02211 -1.51336 0.916614 0
M  V30 14 C 2.86401 -1.71091 1.94706 0
M  V30 15 N 2.57586 -2.68317 2.95613 0
M  V30 16 C 4.01965 -0.961966 2.02562 0
M  V30 17 C 4.32738 -0.0161997 1.06919 0
M  V30 18 C 3.45655 0.18312 0.00991493 0
M  V30 19 O 3.71635 1.12476 -0.985038 0
M  V30 20 C 2.64499 1.68909 -1.72711 0
M  V30 21 C 1.72883 0.594805 -2.11293 0
M  V30 22 O 1.21989 0.495059 -3.25958 0
M  V30 23 C 3.12793 2.40558 -2.94058 0
M  V30 24 C 1.87583 2.60075 -0.782911 0
M  V30 25 H -5.46142 1.48913 2.78554 0
M  V30 26 H -4.69989 2.46069 1.51231 0
M  V30 27 H -6.76495 -0.35845 1.33556 0
M  V30 28 H -6.34049 -2.44593 0.0492079 0
M  V30 29 H -4.1165 -2.90635 -0.866822 0
M  V30 30 H -2.7132 0.790457 0.771619 0
M  V30 31 H -0.701535 -0.375035 0.581894 0
M  V30 32 H -1.21048 0.453044 -0.914208 0
M  V30 33 H -0.0585829 -1.25829 -2.26392 0
M  V30 34 H 0.377238 -2.17269 -0.75224 0
M  V30 35 H 1.59508 -3.02299 3.06678 0
M  V30 36 H 3.29421 -3.06356 3.57949 0
M  V30 37 H 4.69546 -1.1203 2.85247 0
M  V30 38 H 5.22309 0.585056 1.1029 0
M  V30 39 H 4.02051 3.0236 -2.75261 0
M  V30 40 H 3.23551 1.68986 -3.76667 0
M  V30 41 H 2.31724 3.11737 -3.25772 0
M  V30 42 H 2.53413 3.21481 -0.161317 0
M  V30 43 H 1.22141 3.26149 -1.38857 0
M  V30 44 H 1.19616 1.96013 -0.182404 0
M  V30 END ATOM
M  V30 BEGIN BOND
M  V30 1 1 1 2
M  V30 2 2 2 3
M  V30 3 1 3 4
M  V30 4 2 4 5
M  V30 5 1 5 6
M  V30 6 2 6 7
M  V30 7 1 6 8
M  V30 8 1 8 9
M  V30 9 1 9 10
M  V30 10 1 10 11
M  V30 11 1 11 12
M  V30 12 2 12 13
M  V30 13 1 13 14
M  V30 14 1 14 15
M  V30 15 2 14 16
M  V30 16 1 16 17
M  V30 17 2 17 18
M  V30 18 1 18 19
M  V30 19 1 19 20
M  V30 20 1 20 21
M  V30 21 2 21 22
M  V30 22 1 20 23
M  V30 23 1 20 24
M  V30 24 1 7 2
M  V30 25 1 21 11
M  V30 26 1 18 12
M  V30 27 1 1 25
M  V30 28 1 1 26
M  V30 29 1 3 27
M  V30 30 1 4 28
M  V30 31 1 5 29
M  V30 32 1 7 30
M  V30 33 1 9 31
M  V30 34 1 9 32
M  V30 35 1 10 33
M  V30 36 1 10 34
M  V30 37 1 15 35
M  V30 38 1 15 36
M  V30 39 1 16 37
M  V30 40 1 17 38
M  V30 41 1 23 39
M  V30 42 1 23 40
M  V30 43 1 23 41
M  V30 44 1 24 42
M  V30 45 1 24 43
M  V30 46 1 24 44
M  V30 END BOND
M  V30 END CTAB
M  END
