
     RDKit          3D

  0  0  0  0  0  0  0  0  0  0999 V3000
M  V30 BEGIN CTAB
M  V30 COUNTS 44 45 0 0 0
M  V30 BEGIN ATOM
M  V30 1 C -4.24356 -0.130207 2.24495 0
M  V30 2 C -5.3116 -0.566136 1.29567 0
M  V30 3 C -4.93451 -1.73061 0.419155 0
M  V30 4 C -3.74693 -1.47358 -0.463268 0
M  V30 5 O -2.63859 -1.17523 0.320197 0
M  V30 6 C -1.37426 -0.890754 -0.161645 0
M  V30 7 C -0.960528 0.388027 -0.473251 0
M  V30 8 O -1.83625 1.48148 -0.308071 0
M  V30 9 C -1.31964 2.74821 -0.654287 0
M  V30 10 C 0.321699 0.552023 -0.945041 0
M  V30 11 C 1.22955 -0.47777 -1.13017 0
M  V30 12 C 2.56135 -0.217158 -1.65432 0
M  V30 13 C 3.5206 0.428531 -0.768472 0
M  V30 14 C 3.83837 1.78982 -0.867531 0
M  V30 15 N 4.72704 2.31865 -0.0128707 0
M  V30 16 C 5.33496 1.60263 0.943691 0
M  V30 17 N 6.28526 2.19996 1.84649 0
M  V30 18 N 5.04167 0.306632 1.04849 0
M  V30 19 C 4.14704 -0.288699 0.209758 0
M  V30 20 N 3.92567 -1.70202 0.427691 0
M  V30 21 C 0.791961 -1.73828 -0.813177 0
M  V30 22 C -0.512642 -1.94422 -0.327676 0
M  V30 23 Br -1.0055 -3.74766 0.0799895 0
M  V30 24 H -3.60724 -0.958729 2.56813 0
M  V30 25 H -3.68824 0.717565 1.78015 0
M  V30 26 H -4.69607 0.302874 3.1705 0
M  V30 27 H -6.2058 -0.883855 1.87589 0
M  V30 28 H -5.67987 0.285733 0.65391 0
M  V30 29 H -4.78283 -2.60571 1.07685 0
M  V30 30 H -5.85371 -1.97468 -0.177125 0
M  V30 31 H -3.96325 -0.666343 -1.19131 0
M  V30 32 H -3.60101 -2.40886 -1.07775 0
M  V30 33 H -0.407309 2.92047 -0.045179 0
M  V30 34 H -2.06863 3.4967 -0.261423 0
M  V30 35 H -1.18294 2.89814 -1.7248 0
M  V30 36 H 0.625116 1.58048 -1.18543 0
M  V30 37 H 2.48051 0.427836 -2.5786 0
M  V30 38 H 3.06838 -1.14587 -2.05238 0
M  V30 39 H 3.34055 2.37564 -1.65087 0
M  V30 40 H 6.81814 3.04364 1.57084 0
M  V30 41 H 6.45389 1.79523 2.79071 0
M  V30 42 H 3.36454 -1.93377 1.28015 0
M  V30 43 H 4.29489 -2.41786 -0.211084 0
M  V30 44 H 1.44971 -2.58226 -0.948478 0
M  V30 END ATOM
M  V30 BEGIN BOND
M  V30 1 1 1 2
M  V30 2 1 2 3
M  V30 3 1 3 4
M  V30 4 1 4 5
M  V30 5 1 5 6
M  V30 6 2 6 7
M  V30 7 1 7 8
M  V30 8 1 8 9
M  V30 9 1 7 10
M  V30 10 2 10 11
M  V30 11 1 11 12
M  V30 12 1 12 13
M  V30 13 2 13 14
M  V30 14 1 14 15
M  V30 15 2 15 16
M  V30 16 1 16 17
M  V30 17 1 16 18
M  V30 18 2 18 19
M  V30 19 1 19 20
M  V30 20 1 11 21
M  V30 21 2 21 22
M  V30 22 1 22 23
M  V30 23 1 22 6
M  V30 24 1 19 13
M  V30 25 1 1 24
M  V30 26 1 1 25
M  V30 27 1 1 26
M  V30 28 1 2 27
M  V30 29 1 2 28
M  V30 30 1 3 29
M  V30 31 1 3 30
M  V30 32 1 4 31
M  V30 33 1 4 32
M  V30 34 1 9 33
M  V30 35 1 9 34
M  V30 36 1 9 35
M  V30 37 1 10 36
M  V30 38 1 12 37
M  V30 39 1 12 38
M  V30 40 1 14 39
M  V30 41 1 17 40
M  V30 42 1 17 41
M  V30 43 1 20 42
M  V30 44 1 20 43
M  V30 45 1 21 44
M  V30 END BOND
M  V30 END CTAB
M  END
