
     RDKit          3D

  0  0  0  0  0  0  0  0  0  0999 V3000
M  V30 BEGIN CTAB
M  V30 COUNTS 26 27 0 0 0
M  V30 BEGIN ATOM
M  V30 1 N 3.4514 -2.02226 -0.534325 0
M  V30 2 C 2.54854 -0.976395 -0.245011 0
M  V30 3 N 3.03513 0.290717 -0.224257 0
M  V30 4 C 2.2674 1.35745 0.0382892 0
M  V30 5 N 2.86771 2.65492 0.0503695 0
M  V30 6 N 0.974965 1.14703 0.285873 0
M  V30 7 C 0.421453 -0.102495 0.278275 0
M  V30 8 N 1.23468 -1.12716 0.0112107 0
M  V30 9 C -0.991269 -0.306149 0.582707 0
M  V30 10 O -1.18372 -0.962372 1.80436 0
M  V30 11 C -1.71742 1.05713 0.748501 0
M  V30 12 N -3.05823 0.539434 1.01558 0
M  V30 13 C -3.23793 -0.613413 0.153858 0
M  V30 14 C -1.85601 -0.862554 -0.499057 0
M  V30 15 H 4.33761 -2.13517 0.0406871 0
M  V30 16 H 3.2088 -2.66177 -1.32699 0
M  V30 17 H 2.57743 3.37653 0.744257 0
M  V30 18 H 3.62446 2.95096 -0.619488 0
M  V30 19 H -0.815677 -1.88349 1.77677 0
M  V30 20 H -1.72253 1.55682 -0.244604 0
M  V30 21 H -1.31897 1.62703 1.57033 0
M  V30 22 H -3.78686 1.24816 0.954352 0
M  V30 23 H -4.01892 -0.517965 -0.588355 0
M  V30 24 H -3.37551 -1.4916 0.833514 0
M  V30 25 H -1.74921 -0.210079 -1.39582 0
M  V30 26 H -1.71731 -1.93332 -0.722073 0
M  V30 END ATOM
M  V30 BEGIN BOND
M  V30 1 1 1 2
M  V30 2 2 2 3
M  V30 3 1 3 4
M  V30 4 1 4 5
M  V30 5 2 4 6
M  V30 6 1 6 7
M  V30 7 2 7 8
M  V30 8 1 7 9
M  V30 9 1 9 10
M  V30 10 1 9 11
M  V30 11 1 11 12
M  V30 12 1 12 13
M  V30 13 1 13 14
M  V30 14 1 8 2
M  V30 15 1 14 9
M  V30 16 1 1 15
M  V30 17 1 1 16
M  V30 18 1 5 17
M  V30 19 1 5 18
M  V30 20 1 10 19
M  V30 21 1 11 20
M  V30 22 1 11 21
M  V30 23 1 12 22
M  V30 24 1 13 23
M  V30 25 1 13 24
M  V30 26 1 14 25
M  V30 27 1 14 26
M  V30 END BOND
M  V30 END CTAB
M  END
