
     RDKit          3D

  0  0  0  0  0  0  0  0  0  0999 V3000
M  V30 BEGIN CTAB
M  V30 COUNTS 50 50 0 0 0
M  V30 BEGIN ATOM
M  V30 1 N -3.47241 1.68384 1.48055 0
M  V30 2 C -2.26373 1.42534 0.76875 0
M  V30 3 C -2.13227 0.101949 0.0997574 0
M  V30 4 N -0.76988 0.135983 -0.49686 0
M  V30 5 C 0.370379 0.189827 0.330237 0
M  V30 6 O 0.349665 0.204236 1.58734 0
M  V30 7 C 1.74343 0.23544 -0.294585 0
M  V30 8 C 2.7499 0.259519 0.798749 0
M  V30 9 C 4.1538 0.309286 0.29269 0
M  V30 10 C 4.86024 1.49218 0.260462 0
M  V30 11 C 6.17286 1.54354 -0.211892 0
M  V30 12 C 6.78003 0.411913 -0.652402 0
M  V30 13 C 6.08643 -0.791521 -0.628842 0
M  V30 14 C 4.78996 -0.826857 -0.159346 0
M  V30 15 N 2.566 -0.876404 1.69326 0
M  V30 16 C 1.84415 -1.0641 -1.10487 0
M  V30 17 C -2.96466 -0.241162 -1.03941 0
M  V30 18 C -4.38066 -0.344793 -1.18359 0
M  V30 19 C -5.28589 0.832748 -0.978696 0
M  V30 20 C -5.06184 -1.52389 -0.510248 0
M  V30 21 C -2.00941 -1.02316 1.13232 0
M  V30 22 H -3.34774 2.35346 2.26848 0
M  V30 23 H -3.94263 0.846301 1.87088 0
M  V30 24 H -1.45667 1.68165 1.488 0
M  V30 25 H -2.14503 2.27164 0.00817715 0
M  V30 26 H -0.636261 0.123598 -1.52299 0
M  V30 27 H 1.84288 1.0908 -0.966579 0
M  V30 28 H 2.57766 1.1709 1.40713 0
M  V30 29 H 4.4147 2.4036 0.599277 0
M  V30 30 H 6.72253 2.49011 -0.231933 0
M  V30 31 H 7.80459 0.465588 -1.01848 0
M  V30 32 H 6.59652 -1.6778 -0.986547 0
M  V30 33 H 4.30121 -1.8027 -0.167412 0
M  V30 34 H 3.43098 -1.44587 1.64211 0
M  V30 35 H 2.4404 -0.576342 2.68875 0
M  V30 36 H 1.906 -1.89175 -0.380745 0
M  V30 37 H 2.67429 -1.00927 -1.81629 0
M  V30 38 H 0.900366 -1.22196 -1.68287 0
M  V30 39 H -2.6275 0.472058 -1.89003 0
M  V30 40 H -2.51348 -1.21671 -1.45557 0
M  V30 41 H -4.541 -0.624076 -2.28686 0
M  V30 42 H -4.77927 1.79458 -1.19083 0
M  V30 43 H -6.11919 0.801731 -1.76664 0
M  V30 44 H -5.86368 0.814275 -0.0316692 0
M  V30 45 H -4.54282 -2.47322 -0.737682 0
M  V30 46 H -6.07398 -1.5978 -0.959832 0
M  V30 47 H -5.21011 -1.37676 0.568236 0
M  V30 48 H -2.90079 -1.67155 1.14187 0
M  V30 49 H -1.14863 -1.69346 0.94391 0
M  V30 50 H -1.88946 -0.634938 2.16189 0
M  V30 END ATOM
M  V30 BEGIN BOND
M  V30 1 1 1 2
M  V30 2 1 2 3
M  V30 3 1 3 4
M  V30 4 1 4 5
M  V30 5 2 5 6
M  V30 6 1 5 7
M  V30 7 1 7 8
M  V30 8 1 8 9
M  V30 9 2 9 10
M  V30 10 1 10 11
M  V30 11 2 11 12
M  V30 12 1 12 13
M  V30 13 2 13 14
M  V30 14 1 8 15
M  V30 15 1 7 16
M  V30 16 1 3 17
M  V30 17 1 17 18
M  V30 18 1 18 19
M  V30 19 1 18 20
M  V30 20 1 3 21
M  V30 21 1 14 9
M  V30 22 1 1 22
M  V30 23 1 1 23
M  V30 24 1 2 24
M  V30 25 1 2 25
M  V30 26 1 4 26
M  V30 27 1 7 27
M  V30 28 1 8 28
M  V30 29 1 10 29
M  V30 30 1 11 30
M  V30 31 1 12 31
M  V30 32 1 13 32
M  V30 33 1 14 33
M  V30 34 1 15 34
M  V30 35 1 15 35
M  V30 36 1 16 36
M  V30 37 1 16 37
M  V30 38 1 16 38
M  V30 39 1 17 39
M  V30 40 1 17 40
M  V30 41 1 18 41
M  V30 42 1 19 42
M  V30 43 1 19 43
M  V30 44 1 19 44
M  V30 45 1 20 45
M  V30 46 1 20 46
M  V30 47 1 20 47
M  V30 48 1 21 48
M  V30 49 1 21 49
M  V30 50 1 21 50
M  V30 END BOND
M  V30 END CTAB
M  END
