
     RDKit          3D

  0  0  0  0  0  0  0  0  0  0999 V3000
M  V30 BEGIN CTAB
M  V30 COUNTS 27 27 0 0 0
M  V30 BEGIN ATOM
M  V30 1 N -3.83924 0.278942 -1.28284 0
M  V30 2 C -4.09421 -0.34836 -0.059074 0
M  V30 3 S -5.63958 -0.746608 0.393712 0
M  V30 4 N -3.08466 -0.674941 0.845711 0
M  V30 5 C -1.70714 -0.419751 0.60888 0
M  V30 6 C -0.945142 -0.155109 1.7545 0
M  V30 7 C 0.428741 0.0792589 1.61639 0
M  V30 8 C 1.06983 0.06208 0.403623 0
M  V30 9 C 0.275638 -0.207462 -0.728034 0
M  V30 10 C -1.08609 -0.442308 -0.610156 0
M  V30 11 C 0.908188 -0.239793 -2.05966 0
M  V30 12 N 2.42596 0.284068 0.170509 0
M  V30 13 C 3.4445 0.569161 1.08646 0
M  V30 14 S 3.34076 0.724032 2.69215 0
M  V30 15 N 4.80169 0.760267 0.565121 0
M  V30 16 H -3.56225 1.29265 -1.29218 0
M  V30 17 H -3.89919 -0.17717 -2.22141 0
M  V30 18 H -3.30972 -1.14495 1.77309 0
M  V30 19 H -1.40915 -0.132094 2.72824 0
M  V30 20 H 0.98313 0.279631 2.5198 0
M  V30 21 H -1.64566 -0.665868 -1.51047 0
M  V30 22 H 1.33089 0.724275 -2.37008 0
M  V30 23 H 1.73908 -1.00046 -2.10285 0
M  V30 24 H 0.195538 -0.555434 -2.84808 0
M  V30 25 H 2.77439 0.236488 -0.855904 0
M  V30 26 H 5.1916 1.71403 0.474729 0
M  V30 27 H 5.3121 -0.0945828 0.307822 0
M  V30 END ATOM
M  V30 BEGIN BOND
M  V30 1 1 1 2
M  V30 2 2 2 3
M  V30 3 1 2 4
M  V30 4 1 4 5
M  V30 5 2 5 6
M  V30 6 1 6 7
M  V30 7 2 7 8
M  V30 8 1 8 9
M  V30 9 2 9 10
M  V30 10 1 9 11
M  V30 11 1 8 12
M  V30 12 1 12 13
M  V30 13 2 13 14
M  V30 14 1 13 15
M  V30 15 1 10 5
M  V30 16 1 1 16
M  V30 17 1 1 17
M  V30 18 1 4 18
M  V30 19 1 6 19
M  V30 20 1 7 20
M  V30 21 1 10 21
M  V30 22 1 11 22
M  V30 23 1 11 23
M  V30 24 1 11 24
M  V30 25 1 12 25
M  V30 26 1 15 26
M  V30 27 1 15 27
M  V30 END BOND
M  V30 END CTAB
M  END
