
     RDKit          3D

  0  0  0  0  0  0  0  0  0  0999 V3000
M  V30 BEGIN CTAB
M  V30 COUNTS 22 22 0 0 0
M  V30 BEGIN ATOM
M  V30 1 C 5.01856 -1.65968 -0.523064 0
M  V30 2 C 4.05498 -0.97505 -0.325961 0
M  V30 3 C 2.90125 -0.143055 -0.0974582 0
M  V30 4 O 1.67703 -0.853961 -0.233947 0
M  V30 5 C 0.499648 -0.141999 -0.0333448 0
M  V30 6 C -0.739217 -0.741464 -0.142951 0
M  V30 7 C -1.92791 -0.0707302 0.0481507 0
M  V30 8 N -3.20686 -0.661896 -0.058402 0
M  V30 9 N -3.41073 -2.00241 -0.371923 0
M  V30 10 N -1.84236 1.23329 0.355955 0
M  V30 11 C -0.64958 1.85051 0.471008 0
M  V30 12 N 0.499398 1.18106 0.28127 0
M  V30 13 N -0.614609 3.22431 0.796751 0
M  V30 14 H 5.87432 -2.27602 -0.716576 0
M  V30 15 H 2.83197 0.700131 -0.845371 0
M  V30 16 H 2.93735 0.238645 0.934289 0
M  V30 17 H -0.809617 -1.79745 -0.392168 0
M  V30 18 H -4.05138 -0.0790516 0.102803 0
M  V30 19 H -4.21168 -2.34579 0.20232 0
M  V30 20 H -3.61511 -2.14968 -1.36526 0
M  V30 21 H -0.460055 3.98778 0.1162 0
M  V30 22 H -0.75541 3.48251 1.79767 0
M  V30 END ATOM
M  V30 BEGIN BOND
M  V30 1 3 1 2
M  V30 2 1 2 3
M  V30 3 1 3 4
M  V30 4 1 4 5
M  V30 5 2 5 6
M  V30 6 1 6 7
M  V30 7 1 7 8
M  V30 8 1 8 9
M  V30 9 2 7 10
M  V30 10 1 10 11
M  V30 11 2 11 12
M  V30 12 1 11 13
M  V30 13 1 12 5
M  V30 14 1 1 14
M  V30 15 1 3 15
M  V30 16 1 3 16
M  V30 17 1 6 17
M  V30 18 1 8 18
M  V30 19 1 9 19
M  V30 20 1 9 20
M  V30 21 1 13 21
M  V30 22 1 13 22
M  V30 END BOND
M  V30 END CTAB
M  END
