
     RDKit          3D

  0  0  0  0  0  0  0  0  0  0999 V3000
M  V30 BEGIN CTAB
M  V30 COUNTS 30 32 0 0 0
M  V30 BEGIN ATOM
M  V30 1 N 4.46353 2.04049 0.931632 0
M  V30 2 C 3.56264 0.993488 0.557746 0
M  V30 3 C 3.99919 -0.272119 0.214145 0
M  V30 4 C 3.04613 -1.2155 -0.132778 0
M  V30 5 C 1.69446 -0.946407 -0.149128 0
M  V30 6 C 1.30474 0.329736 0.200915 0
M  V30 7 C 2.2303 1.29069 0.551082 0
M  V30 8 N -0.0137413 0.625016 0.194654 0
M  V30 9 C -0.958414 -0.272575 -0.138128 0
M  V30 10 N -0.580555 -1.49759 -0.473876 0
M  V30 11 C 0.732818 -1.86743 -0.490052 0
M  V30 12 N 1.13933 -3.18258 -0.85044 0
M  V30 13 C -2.3759 0.127457 -0.120401 0
M  V30 14 C -3.37315 -0.739766 -0.447862 0
M  V30 15 C -4.70525 -0.318592 -0.41783 0
M  V30 16 C -5.01398 0.987932 -0.0531128 0
M  V30 17 C -4.01768 1.87312 0.279606 0
M  V30 18 C -2.72058 1.40991 0.234645 0
M  V30 19 H 5.329 2.15429 0.384208 0
M  V30 20 H 4.1886 2.64078 1.75235 0
M  V30 21 H 5.04506 -0.45529 0.234213 0
M  V30 22 H 3.38001 -2.21863 -0.405972 0
M  V30 23 H 1.86948 2.29518 0.82278 0
M  V30 24 H 1.92304 -3.6739 -0.330336 0
M  V30 25 H 0.712741 -3.73222 -1.61916 0
M  V30 26 H -3.14512 -1.74709 -0.729765 0
M  V30 27 H -5.52488 -0.975804 -0.670512 0
M  V30 28 H -6.03837 1.35136 -0.0183198 0
M  V30 29 H -4.24489 2.90984 0.570268 0
M  V30 30 H -1.90855 2.08621 0.492485 0
M  V30 END ATOM
M  V30 BEGIN BOND
M  V30 1 1 1 2
M  V30 2 2 2 3
M  V30 3 1 3 4
M  V30 4 2 4 5
M  V30 5 1 5 6
M  V30 6 2 6 7
M  V30 7 1 6 8
M  V30 8 2 8 9
M  V30 9 1 9 10
M  V30 10 2 10 11
M  V30 11 1 11 12
M  V30 12 1 9 13
M  V30 13 2 13 14
M  V30 14 1 14 15
M  V30 15 2 15 16
M  V30 16 1 16 17
M  V30 17 2 17 18
M  V30 18 1 7 2
M  V30 19 1 18 13
M  V30 20 1 11 5
M  V30 21 1 1 19
M  V30 22 1 1 20
M  V30 23 1 3 21
M  V30 24 1 4 22
M  V30 25 1 7 23
M  V30 26 1 12 24
M  V30 27 1 12 25
M  V30 28 1 14 26
M  V30 29 1 15 27
M  V30 30 1 16 28
M  V30 31 1 17 29
M  V30 32 1 18 30
M  V30 END BOND
M  V30 END CTAB
M  END
