
     RDKit          3D

  0  0  0  0  0  0  0  0  0  0999 V3000
M  V30 BEGIN CTAB
M  V30 COUNTS 44 45 0 0 0
M  V30 BEGIN ATOM
M  V30 1 C -3.76731 0.45131 2.88261 0
M  V30 2 C -2.70363 1.11165 1.95796 0
M  V30 3 O -1.86185 0.182629 1.50633 0
M  V30 4 C -0.819051 0.52772 0.648431 0
M  V30 5 C 0.0425948 1.49997 1.47806 0
M  V30 6 O -1.2745 1.08042 -0.487302 0
M  V30 7 C -2.11371 0.563789 -1.3555 0
M  V30 8 C -1.92515 -0.681793 -2.11555 0
M  V30 9 C -0.00921449 -0.703762 0.463862 0
M  V30 10 C 1.14189 -0.770593 -0.271491 0
M  V30 11 C 1.74656 -2.04459 -0.41208 0
M  V30 12 N 2.94731 -2.08761 -1.191 0
M  V30 13 N 1.22202 -3.13545 0.150485 0
M  V30 14 C 0.0945864 -3.06838 0.876012 0
M  V30 15 N -0.475735 -4.2288 1.48736 0
M  V30 16 N -0.471246 -1.88111 1.00574 0
M  V30 17 C 1.85099 0.360701 -0.806239 0
M  V30 18 C 2.9227 0.821446 -0.0803043 0
M  V30 19 C 3.68798 1.8559 -0.515326 0
M  V30 20 C 3.42453 2.50227 -1.72001 0
M  V30 21 Cl 4.41657 3.84457 -2.28193 0
M  V30 22 C 2.34863 2.02844 -2.43411 0
M  V30 23 C 1.57498 0.962885 -1.96842 0
M  V30 24 H -4.78135 0.612438 2.5402 0
M  V30 25 H -3.57613 -0.646562 2.91682 0
M  V30 26 H -3.58924 0.825099 3.9095 0
M  V30 27 H -2.35018 2.00853 2.46382 0
M  V30 28 H -3.34864 1.50375 1.11911 0
M  V30 29 H -0.553622 1.94854 2.33399 0
M  V30 30 H 0.461524 2.30809 0.854304 0
M  V30 31 H 0.852012 0.997115 2.01099 0
M  V30 32 H -2.21795 1.37545 -2.18812 0
M  V30 33 H -3.17757 0.637993 -0.94361 0
M  V30 34 H -1.25857 -0.550265 -3.02624 0
M  V30 35 H -1.57059 -1.57354 -1.63728 0
M  V30 36 H -2.93002 -0.88451 -2.63036 0
M  V30 37 H 3.79697 -2.4649 -0.722401 0
M  V30 38 H 2.9864 -1.76143 -2.17935 0
M  V30 39 H -1.02451 -4.89076 0.917396 0
M  V30 40 H -0.340769 -4.406 2.49371 0
M  V30 41 H 3.20667 0.37294 0.885891 0
M  V30 42 H 4.55061 2.23373 0.0601472 0
M  V30 43 H 2.1239 2.51616 -3.37708 0
M  V30 44 H 0.741096 0.646534 -2.61902 0
M  V30 END ATOM
M  V30 BEGIN BOND
M  V30 1 1 1 2
M  V30 2 1 2 3
M  V30 3 1 3 4
M  V30 4 1 4 5
M  V30 5 1 4 6
M  V30 6 1 6 7
M  V30 7 1 7 8
M  V30 8 1 4 9
M  V30 9 2 9 10
M  V30 10 1 10 11
M  V30 11 1 11 12
M  V30 12 2 11 13
M  V30 13 1 13 14
M  V30 14 1 14 15
M  V30 15 2 14 16
M  V30 16 1 10 17
M  V30 17 2 17 18
M  V30 18 1 18 19
M  V30 19 2 19 20
M  V30 20 1 20 21
M  V30 21 1 20 22
M  V30 22 2 22 23
M  V30 23 1 16 9
M  V30 24 1 23 17
M  V30 25 1 1 24
M  V30 26 1 1 25
M  V30 27 1 1 26
M  V30 28 1 2 27
M  V30 29 1 2 28
M  V30 30 1 5 29
M  V30 31 1 5 30
M  V30 32 1 5 31
M  V30 33 1 7 32
M  V30 34 1 7 33
M  V30 35 1 8 34
M  V30 36 1 8 35
M  V30 37 1 8 36
M  V30 38 1 12 37
M  V30 39 1 12 38
M  V30 40 1 15 39
M  V30 41 1 15 40
M  V30 42 1 18 41
M  V30 43 1 19 42
M  V30 44 1 22 43
M  V30 45 1 23 44
M  V30 END BOND
M  V30 END CTAB
M  END
