
     RDKit          3D

  0  0  0  0  0  0  0  0  0  0999 V3000
M  V30 BEGIN CTAB
M  V30 COUNTS 39 41 0 0 0
M  V30 BEGIN ATOM
M  V30 1 N 3.48354 -1.33898 2.08265 0
M  V30 2 C 3.24107 -0.743228 0.809222 0
M  V30 3 N 2.01813 -0.22426 0.504926 0
M  V30 4 C 1.78931 0.335621 -0.691088 0
M  V30 5 C 0.489121 0.91945 -1.09335 0
M  V30 6 N -0.475687 0.863073 -0.0692198 0
M  V30 7 C -0.235205 1.51056 1.13856 0
M  V30 8 C -1.13597 2.6157 1.55891 0
M  V30 9 S -2.85145 2.43536 1.02148 0
M  V30 10 C -2.75872 1.61072 -0.614721 0
M  V30 11 C -1.77251 0.463499 -0.415157 0
M  V30 12 C -2.37761 -0.603376 0.49319 0
M  V30 13 C -1.50302 -1.83715 0.43267 0
M  V30 14 C -2.55612 -2.51502 -0.389095 0
M  V30 15 C -3.49625 -1.39318 -0.101529 0
M  V30 16 N 2.80181 0.366965 -1.57388 0
M  V30 17 C 4.01716 -0.130413 -1.3167 0
M  V30 18 N 4.22145 -0.687301 -0.108528 0
M  V30 19 N 5.07524 -0.0788206 -2.28551 0
M  V30 20 H 2.90091 -1.14407 2.9102 0
M  V30 21 H 4.27522 -1.99913 2.20086 0
M  V30 22 H 0.120715 0.277547 -1.9475 0
M  V30 23 H 0.672562 1.92995 -1.50989 0
M  V30 24 H -0.156064 0.785088 1.99978 0
M  V30 25 H 0.799239 1.96958 1.0976 0
M  V30 26 H -0.770335 3.58644 1.14093 0
M  V30 27 H -1.10768 2.72506 2.66688 0
M  V30 28 H -3.72237 1.22941 -0.939177 0
M  V30 29 H -2.28983 2.30081 -1.33121 0
M  V30 30 H -1.71938 -0.0369996 -1.42872 0
M  V30 31 H -2.55225 -0.250197 1.53078 0
M  V30 32 H -0.553524 -1.72727 -0.118115 0
M  V30 33 H -1.30301 -2.31166 1.41149 0
M  V30 34 H -2.32202 -2.63695 -1.45777 0
M  V30 35 H -2.86164 -3.49862 0.0681073 0
M  V30 36 H -4.31341 -1.60334 0.614905 0
M  V30 37 H -3.94067 -0.992743 -1.03634 0
M  V30 38 H 5.67426 0.769464 -2.39544 0
M  V30 39 H 5.19496 -0.941597 -2.8602 0
M  V30 END ATOM
M  V30 BEGIN BOND
M  V30 1 1 1 2
M  V30 2 2 2 3
M  V30 3 1 3 4
M  V30 4 1 4 5
M  V30 5 1 5 6
M  V30 6 1 6 7
M  V30 7 1 7 8
M  V30 8 1 8 9
M  V30 9 1 9 10
M  V30 10 1 10 11
M  V30 11 1 11 12
M  V30 12 1 12 13
M  V30 13 1 13 14
M  V30 14 1 14 15
M  V30 15 2 4 16
M  V30 16 1 16 17
M  V30 17 2 17 18
M  V30 18 1 17 19
M  V30 19 1 18 2
M  V30 20 1 11 6
M  V30 21 1 15 12
M  V30 22 1 1 20
M  V30 23 1 1 21
M  V30 24 1 5 22
M  V30 25 1 5 23
M  V30 26 1 7 24
M  V30 27 1 7 25
M  V30 28 1 8 26
M  V30 29 1 8 27
M  V30 30 1 10 28
M  V30 31 1 10 29
M  V30 32 1 11 30
M  V30 33 1 12 31
M  V30 34 1 13 32
M  V30 35 1 13 33
M  V30 36 1 14 34
M  V30 37 1 14 35
M  V30 38 1 15 36
M  V30 39 1 15 37
M  V30 40 1 19 38
M  V30 41 1 19 39
M  V30 END BOND
M  V30 END CTAB
M  END
