
     RDKit          3D

  0  0  0  0  0  0  0  0  0  0999 V3000
M  V30 BEGIN CTAB
M  V30 COUNTS 31 31 0 0 0
M  V30 BEGIN ATOM
M  V30 1 O -3.27354 2.0188 0.503346 0
M  V30 2 C -2.2558 1.83584 -0.412044 0
M  V30 3 C -1.2025 0.890843 0.118437 0
M  V30 4 C -1.77972 -0.448252 0.42195 0
M  V30 5 C -0.811843 -1.54664 0.589866 0
M  V30 6 C -1.49853 -2.84972 0.155809 0
M  V30 7 C 0.45408 -1.43764 -0.175492 0
M  V30 8 N 0.905664 -0.0754505 -0.376012 0
M  V30 9 C -0.0981742 0.840261 -0.918855 0
M  V30 10 C 2.20521 0.336485 -0.073649 0
M  V30 11 N 2.56384 1.55351 -0.25868 0
M  V30 12 N 3.8288 2.02015 0.0196586 0
M  V30 13 N 3.14035 -0.585694 0.440479 0
M  V30 14 H -3.55746 2.98647 0.504972 0
M  V30 15 H -2.62207 1.55708 -1.41477 0
M  V30 16 H -1.74016 2.82827 -0.538213 0
M  V30 17 H -0.821405 1.34564 1.0602 0
M  V30 18 H -2.5561 -0.70483 -0.347827 0
M  V30 19 H -2.36578 -0.346775 1.37804 0
M  V30 20 H -0.549916 -1.72366 1.67354 0
M  V30 21 H -1.26209 -2.97822 -0.930873 0
M  V30 22 H -2.59584 -2.76913 0.235496 0
M  V30 23 H -1.0619 -3.70065 0.692063 0
M  V30 24 H 0.334342 -1.8887 -1.17441 0
M  V30 25 H 1.24862 -2.02334 0.343605 0
M  V30 26 H 0.306822 1.8582 -1.04433 0
M  V30 27 H -0.531168 0.432424 -1.85529 0
M  V30 28 H 4.26346 1.88402 0.953043 0
M  V30 29 H 4.35833 2.52067 -0.726225 0
M  V30 30 H 3.64389 -0.323289 1.3146 0
M  V30 31 H 3.3306 -1.50665 -0.0320547 0
M  V30 END ATOM
M  V30 BEGIN BOND
M  V30 1 1 1 2
M  V30 2 1 2 3
M  V30 3 1 3 4
M  V30 4 1 4 5
M  V30 5 1 5 6
M  V30 6 1 5 7
M  V30 7 1 7 8
M  V30 8 1 8 9
M  V30 9 1 8 10
M  V30 10 2 10 11 CFG=2
M  V30 11 1 11 12
M  V30 12 1 10 13
M  V30 13 1 9 3
M  V30 14 1 1 14
M  V30 15 1 2 15
M  V30 16 1 2 16
M  V30 17 1 3 17
M  V30 18 1 4 18
M  V30 19 1 4 19
M  V30 20 1 5 20
M  V30 21 1 6 21
M  V30 22 1 6 22
M  V30 23 1 6 23
M  V30 24 1 7 24
M  V30 25 1 7 25
M  V30 26 1 9 26
M  V30 27 1 9 27
M  V30 28 1 12 28
M  V30 29 1 12 29
M  V30 30 1 13 30
M  V30 31 1 13 31
M  V30 END BOND
M  V30 END CTAB
M  END
