
     RDKit          3D

  0  0  0  0  0  0  0  0  0  0999 V3000
M  V30 BEGIN CTAB
M  V30 COUNTS 60 64 0 0 0
M  V30 BEGIN ATOM
M  V30 1 N -5.71075 -0.888878 3.10585 0
M  V30 2 C -5.92156 -0.644007 1.73205 0
M  V30 3 N -7.16043 -0.450193 1.21214 0
M  V30 4 C -7.36913 -0.218366 -0.0832437 0
M  V30 5 N -8.69724 -0.0158555 -0.608657 0
M  V30 6 C -6.30074 -0.168771 -0.949161 0
M  V30 7 C -5.02941 -0.360834 -0.457354 0
M  V30 8 N -4.9167 -0.585174 0.843557 0
M  V30 9 N -4.12334 -0.273864 -1.4573 0
M  V30 10 C -4.87877 -0.0236864 -2.56989 0
M  V30 11 N -6.18036 0.0392796 -2.26717 0
M  V30 12 C -2.69351 -0.413041 -1.37632 0 CFG=2
M  V30 13 C -2.27746 -1.60889 -0.579865 0
M  V30 14 C -1.44662 -1.26512 0.620101 0
M  V30 15 N -0.278412 -0.491686 0.231561 0
M  V30 16 C -0.571892 0.668413 -0.555778 0
M  V30 17 C -1.97373 0.842436 -1.02161 0 CFG=2
M  V30 18 C -2.68888 1.73929 -0.0402025 0
M  V30 19 O -1.8694 1.66146 -2.19581 0
M  V30 20 C 0.96833 -0.965003 0.652798 0
M  V30 21 O 0.892729 -2.0749 1.33027 0
M  V30 22 C 2.3001 -0.475802 0.487911 0
M  V30 23 C 3.39254 -1.23412 0.957756 0
M  V30 24 C 4.69542 -0.808076 0.84644 0
M  V30 25 C 5.00549 0.397033 0.262703 0
M  V30 26 C 3.97629 1.15993 -0.204158 0
M  V30 27 C 2.64943 0.712547 -0.0836657 0
M  V30 28 N 4.54405 2.26863 -0.7187 0
M  V30 29 C 5.86212 2.19235 -0.575479 0
M  V30 30 N 6.18075 1.04626 0.0283641 0
M  V30 31 C 7.49733 0.551786 0.382702 0
M  V30 32 C 7.56166 0.0914532 1.82822 0
M  V30 33 C 7.96824 -0.524124 -0.572938 0
M  V30 34 H -6.47798 -0.749434 3.77638 0
M  V30 35 H -4.78835 -1.20647 3.43077 0
M  V30 36 H -8.83636 0.472317 -1.48979 0
M  V30 37 H -9.51472 -0.37319 -0.079439 0
M  V30 38 H -4.4799 0.10604 -3.56124 0
M  V30 39 H -2.36012 -0.646406 -2.43902 0
M  V30 40 H -1.70316 -2.36188 -1.16291 0
M  V30 41 H -3.1767 -2.13961 -0.216687 0
M  V30 42 H -1.07141 -2.2379 1.0514 0
M  V30 43 H -1.96541 -0.786606 1.44779 0
M  V30 44 H 0.0832013 0.703965 -1.47461 0
M  V30 45 H -0.278313 1.55747 0.0644299 0
M  V30 46 H -2.21194 2.76966 -0.0227562 0
M  V30 47 H -3.7329 1.95622 -0.340818 0
M  V30 48 H -2.62651 1.41701 1.01309 0
M  V30 49 H -2.77791 2.00325 -2.43867 0
M  V30 50 H 3.15481 -2.18944 1.41949 0
M  V30 51 H 5.46286 -1.46186 1.23761 0
M  V30 52 H 1.94009 1.40863 -0.476957 0
M  V30 53 H 6.5529 2.95297 -0.904517 0
M  V30 54 H 8.19687 1.41107 0.298284 0
M  V30 55 H 8.40604 0.551663 2.38087 0
M  V30 56 H 6.63326 0.348359 2.37299 0
M  V30 57 H 7.74779 -1.01307 1.81852 0
M  V30 58 H 7.36893 -0.565344 -1.49217 0
M  V30 59 H 8.02522 -1.49991 -0.0372752 0
M  V30 60 H 9.02356 -0.307988 -0.904009 0
M  V30 END ATOM
M  V30 BEGIN BOND
M  V30 1 1 1 2
M  V30 2 2 2 3
M  V30 3 1 3 4
M  V30 4 1 4 5
M  V30 5 2 4 6
M  V30 6 1 6 7
M  V30 7 2 7 8
M  V30 8 1 7 9
M  V30 9 1 9 10
M  V30 10 2 10 11
M  V30 11 1 9 12
M  V30 12 1 12 13
M  V30 13 1 13 14
M  V30 14 1 14 15
M  V30 15 1 15 16
M  V30 16 1 16 17
M  V30 17 1 17 18
M  V30 18 1 17 19 CFG=3
M  V30 19 1 15 20
M  V30 20 2 20 21
M  V30 21 1 20 22
M  V30 22 2 22 23
M  V30 23 1 23 24
M  V30 24 2 24 25
M  V30 25 1 25 26
M  V30 26 2 26 27
M  V30 27 1 26 28
M  V30 28 2 28 29
M  V30 29 1 29 30
M  V30 30 1 30 31
M  V30 31 1 31 32
M  V30 32 1 31 33
M  V30 33 1 8 2
M  V30 34 1 17 12
M  V30 35 1 27 22
M  V30 36 1 11 6
M  V30 37 1 30 25
M  V30 38 1 1 34
M  V30 39 1 1 35
M  V30 40 1 5 36
M  V30 41 1 5 37
M  V30 42 1 10 38
M  V30 43 1 12 39 CFG=3
M  V30 44 1 13 40
M  V30 45 1 13 41
M  V30 46 1 14 42
M  V30 47 1 14 43
M  V30 48 1 16 44
M  V30 49 1 16 45
M  V30 50 1 18 46
M  V30 51 1 18 47
M  V30 52 1 18 48
M  V30 53 1 19 49
M  V30 54 1 23 50
M  V30 55 1 24 51
M  V30 56 1 27 52
M  V30 57 1 29 53
M  V30 58 1 31 54
M  V30 59 1 32 55
M  V30 60 1 32 56
M  V30 61 1 32 57
M  V30 62 1 33 58
M  V30 63 1 33 59
M  V30 64 1 33 60
M  V30 END BOND
M  V30 END CTAB
M  END
