
     RDKit          3D

  0  0  0  0  0  0  0  0  0  0999 V3000
M  V30 BEGIN CTAB
M  V30 COUNTS 25 26 0 0 0
M  V30 BEGIN ATOM
M  V30 1 C -4.69625 -0.804859 -0.718503 0
M  V30 2 C -3.4873 -0.280915 0.0410673 0
M  V30 3 C -3.65582 0.36555 1.24048 0
M  V30 4 S -2.03396 0.73236 1.64977 0
M  V30 5 C -1.2593 0.0499571 0.289411 0
M  V30 6 N -2.2826 -0.421734 -0.404689 0
M  V30 7 C 0.171461 0.0193174 0.00783551 0
M  V30 8 C 0.650135 -0.570733 -1.13829 0
M  V30 9 C 2.01427 -0.604006 -1.41408 0
M  V30 10 C 2.9023 -0.0485211 -0.546508 0
M  V30 11 C 2.44571 0.557698 0.625461 0
M  V30 12 C 1.07128 0.578168 0.879652 0
M  V30 13 N 3.37441 1.13721 1.53022 0
M  V30 14 N 4.2863 -0.0788625 -0.820146 0
M  V30 15 H -5.06318 -1.73448 -0.240429 0
M  V30 16 H -5.52984 -0.0503018 -0.612222 0
M  V30 17 H -4.49161 -0.895652 -1.78317 0
M  V30 18 H -4.60194 0.576061 1.77183 0
M  V30 19 H -0.00761114 -1.02845 -1.86486 0
M  V30 20 H 2.34489 -1.07549 -2.32175 0
M  V30 21 H 0.740674 1.05272 1.79283 0
M  V30 22 H 3.23554 2.06805 1.98487 0
M  V30 23 H 4.24994 0.624175 1.76896 0
M  V30 24 H 4.89246 0.701151 -0.510979 0
M  V30 25 H 4.73004 -0.86841 -1.32961 0
M  V30 END ATOM
M  V30 BEGIN BOND
M  V30 1 1 1 2
M  V30 2 2 2 3
M  V30 3 1 3 4
M  V30 4 1 4 5
M  V30 5 2 5 6
M  V30 6 1 5 7
M  V30 7 2 7 8
M  V30 8 1 8 9
M  V30 9 2 9 10
M  V30 10 1 10 11
M  V30 11 2 11 12
M  V30 12 1 11 13
M  V30 13 1 10 14
M  V30 14 1 6 2
M  V30 15 1 12 7
M  V30 16 1 1 15
M  V30 17 1 1 16
M  V30 18 1 1 17
M  V30 19 1 3 18
M  V30 20 1 8 19
M  V30 21 1 9 20
M  V30 22 1 12 21
M  V30 23 1 13 22
M  V30 24 1 13 23
M  V30 25 1 14 24
M  V30 26 1 14 25
M  V30 END BOND
M  V30 END CTAB
M  END
