
     RDKit          3D

  0  0  0  0  0  0  0  0  0  0999 V3000
M  V30 BEGIN CTAB
M  V30 COUNTS 42 42 0 0 0
M  V30 BEGIN ATOM
M  V30 1 C 5.12925 1.4557 0.364449 0
M  V30 2 O 5.0563 0.107771 0.112899 0
M  V30 3 C 4.36965 -0.2264 -1.02036 0
M  V30 4 C 2.88216 0.136807 -0.977691 0
M  V30 5 C 2.1978 -0.451241 0.163823 0
M  V30 6 O 2.92756 -0.518793 1.24196 0
M  V30 7 N 0.905069 -0.956345 0.321223 0
M  V30 8 C -0.173607 -1.00645 -0.605586 0
M  V30 9 C -1.46316 -0.460836 -0.218428 0
M  V30 10 C -2.24636 -0.99545 0.755171 0
M  V30 11 C -3.48126 -0.402771 1.0992 0
M  V30 12 C -3.88731 0.729289 0.433675 0
M  V30 13 C -3.1065 1.29111 -0.561991 0
M  V30 14 C -1.91679 0.676004 -0.856224 0
M  V30 15 S -5.40324 1.53914 0.787625 0
M  V30 16 O -6.43637 0.526441 1.18983 0
M  V30 17 O -5.93799 2.22782 -0.450545 0
M  V30 18 N -5.22354 2.73649 2.00147 0
M  V30 19 C -0.360958 -2.50482 -0.94884 0
M  V30 20 C 0.591273 -1.55778 1.63892 0
M  V30 21 N 2.39148 -0.237092 -2.28239 0
M  V30 22 H 5.65005 2.01199 -0.466142 0
M  V30 23 H 5.74406 1.59541 1.28226 0
M  V30 24 H 4.14941 1.92102 0.554924 0
M  V30 25 H 4.75447 0.334461 -1.92523 0
M  V30 26 H 4.47387 -1.29348 -1.30836 0
M  V30 27 H 2.83722 1.25746 -0.834074 0
M  V30 28 H 0.158193 -0.561687 -1.57705 0
M  V30 29 H -2.01096 -1.88965 1.31431 0
M  V30 30 H -4.1075 -0.821489 1.87129 0
M  V30 31 H -3.41136 2.17924 -1.0938 0
M  V30 32 H -1.31218 1.13547 -1.64749 0
M  V30 33 H -4.97207 3.66393 1.61657 0
M  V30 34 H -4.60352 2.41831 2.77682 0
M  V30 35 H -0.873323 -2.54344 -1.91279 0
M  V30 36 H -0.973466 -2.98527 -0.13951 0
M  V30 37 H 0.63214 -2.96964 -0.96255 0
M  V30 38 H -0.0593396 -0.937861 2.24683 0
M  V30 39 H 1.58673 -1.71808 2.13729 0
M  V30 40 H 0.195704 -2.56984 1.48708 0
M  V30 41 H 2.36109 0.633856 -2.85816 0
M  V30 42 H 2.96731 -0.969315 -2.7504 0
M  V30 END ATOM
M  V30 BEGIN BOND
M  V30 1 1 1 2
M  V30 2 1 2 3
M  V30 3 1 3 4
M  V30 4 1 4 5
M  V30 5 2 5 6
M  V30 6 1 5 7
M  V30 7 1 7 8
M  V30 8 1 8 9
M  V30 9 2 9 10
M  V30 10 1 10 11
M  V30 11 2 11 12
M  V30 12 1 12 13
M  V30 13 2 13 14
M  V30 14 1 12 15
M  V30 15 2 15 16
M  V30 16 2 15 17
M  V30 17 1 15 18
M  V30 18 1 8 19
M  V30 19 1 7 20
M  V30 20 1 4 21
M  V30 21 1 14 9
M  V30 22 1 1 22
M  V30 23 1 1 23
M  V30 24 1 1 24
M  V30 25 1 3 25
M  V30 26 1 3 26
M  V30 27 1 4 27
M  V30 28 1 8 28
M  V30 29 1 10 29
M  V30 30 1 11 30
M  V30 31 1 13 31
M  V30 32 1 14 32
M  V30 33 1 18 33
M  V30 34 1 18 34
M  V30 35 1 19 35
M  V30 36 1 19 36
M  V30 37 1 19 37
M  V30 38 1 20 38
M  V30 39 1 20 39
M  V30 40 1 20 40
M  V30 41 1 21 41
M  V30 42 1 21 42
M  V30 END BOND
M  V30 END CTAB
M  END
