
     RDKit          3D

  0  0  0  0  0  0  0  0  0  0999 V3000
M  V30 BEGIN CTAB
M  V30 COUNTS 26 26 0 0 0
M  V30 BEGIN ATOM
M  V30 1 C -3.26553 0.975668 -0.591375 0
M  V30 2 N -2.34901 0.197711 0.247201 0
M  V30 3 C -0.983231 0.424859 -0.135525 0
M  V30 4 C -0.00878499 -0.197705 0.780906 0
M  V30 5 N 1.37363 0.0617704 0.335426 0
M  V30 6 N 2.16847 1.07186 0.647173 0
M  V30 7 C 3.35721 0.892292 0.00437412 0
M  V30 8 N 3.22201 -0.239515 -0.678483 0
M  V30 9 C 2.00442 -0.789612 -0.501874 0
M  V30 10 N 1.4656 -1.98582 -1.04724 0
M  V30 11 N 4.48149 1.7695 0.0855899 0
M  V30 12 C -2.75738 -1.19253 0.25009 0
M  V30 13 H -3.45487 1.92689 -0.0540007 0
M  V30 14 H -4.19085 0.393391 -0.709156 0
M  V30 15 H -2.85172 1.20784 -1.57011 0
M  V30 16 H -0.838814 1.52664 -0.108748 0
M  V30 17 H -0.776163 0.137308 -1.18723 0
M  V30 18 H -0.144986 -1.2695 0.90601 0
M  V30 19 H -0.0811702 0.355265 1.7676 0
M  V30 20 H 1.31388 -2.06893 -2.07905 0
M  V30 21 H 1.21301 -2.78517 -0.462249 0
M  V30 22 H 5.38282 1.50835 -0.366636 0
M  V30 23 H 4.43715 2.66614 0.583376 0
M  V30 24 H -2.00023 -1.79302 0.754644 0
M  V30 25 H -3.67342 -1.24246 0.916127 0
M  V30 26 H -3.04354 -1.55123 -0.759091 0
M  V30 END ATOM
M  V30 BEGIN BOND
M  V30 1 1 1 2
M  V30 2 1 2 3
M  V30 3 1 3 4
M  V30 4 1 4 5
M  V30 5 1 5 6
M  V30 6 2 6 7
M  V30 7 1 7 8
M  V30 8 2 8 9
M  V30 9 1 9 10
M  V30 10 1 7 11
M  V30 11 1 2 12
M  V30 12 1 9 5
M  V30 13 1 1 13
M  V30 14 1 1 14
M  V30 15 1 1 15
M  V30 16 1 3 16
M  V30 17 1 3 17
M  V30 18 1 4 18
M  V30 19 1 4 19
M  V30 20 1 10 20
M  V30 21 1 10 21
M  V30 22 1 11 22
M  V30 23 1 11 23
M  V30 24 1 12 24
M  V30 25 1 12 25
M  V30 26 1 12 26
M  V30 END BOND
M  V30 END CTAB
M  END
