
     RDKit          3D

  0  0  0  0  0  0  0  0  0  0999 V3000
M  V30 BEGIN CTAB
M  V30 COUNTS 31 33 0 0 0
M  V30 BEGIN ATOM
M  V30 1 N -4.93257 -1.72779 1.00288 0
M  V30 2 C -3.92437 -0.870913 0.470584 0
M  V30 3 C -4.33025 0.187426 -0.316935 0
M  V30 4 C -3.34028 1.00464 -0.822355 0
M  V30 5 N -3.72448 2.1119 -1.64309 0
M  V30 6 C -2.01357 0.756018 -0.540346 0
M  V30 7 C -1.60585 -0.301293 0.246582 0
M  V30 8 C -2.59648 -1.11785 0.751477 0
M  V30 9 C -0.194233 -0.540087 0.528241 0
M  V30 10 N 0.330043 -1.526 1.27339 0
M  V30 11 N 1.65185 -1.45333 1.32561 0
M  V30 12 C 1.98686 -0.385721 0.589801 0
M  V30 13 N 0.863235 0.171193 0.10372 0
M  V30 14 C 3.36397 0.0787818 0.366631 0
M  V30 15 C 3.62827 1.18627 -0.403214 0
M  V30 16 C 4.91833 1.59214 -0.591369 0
M  V30 17 N 5.92284 0.915122 -0.0289113 0
M  V30 18 C 5.7201 -0.167245 0.727849 0
M  V30 19 C 4.42452 -0.594121 0.930563 0
M  V30 20 H -4.85123 -2.10454 1.97075 0
M  V30 21 H -5.74763 -1.96163 0.392909 0
M  V30 22 H -5.36915 0.395845 -0.547574 0
M  V30 23 H -4.59647 2.63428 -1.4673 0
M  V30 24 H -3.11339 2.39583 -2.43195 0
M  V30 25 H -1.232 1.4042 -0.941507 0
M  V30 26 H -2.26804 -1.94662 1.36901 0
M  V30 27 H 2.30946 -2.10539 1.84291 0
M  V30 28 H 2.79169 1.70883 -0.842178 0
M  V30 29 H 5.171 2.46173 -1.1923 0
M  V30 30 H 6.54336 -0.718512 1.18625 0
M  V30 31 H 4.21447 -1.48316 1.54871 0
M  V30 END ATOM
M  V30 BEGIN BOND
M  V30 1 1 1 2
M  V30 2 2 2 3
M  V30 3 1 3 4
M  V30 4 1 4 5
M  V30 5 2 4 6
M  V30 6 1 6 7
M  V30 7 2 7 8
M  V30 8 1 7 9
M  V30 9 2 9 10
M  V30 10 1 10 11
M  V30 11 1 11 12
M  V30 12 2 12 13
M  V30 13 1 12 14
M  V30 14 2 14 15
M  V30 15 1 15 16
M  V30 16 2 16 17
M  V30 17 1 17 18
M  V30 18 2 18 19
M  V30 19 1 8 2
M  V30 20 1 13 9
M  V30 21 1 19 14
M  V30 22 1 1 20
M  V30 23 1 1 21
M  V30 24 1 3 22
M  V30 25 1 5 23
M  V30 26 1 5 24
M  V30 27 1 6 25
M  V30 28 1 8 26
M  V30 29 1 11 27
M  V30 30 1 15 28
M  V30 31 1 16 29
M  V30 32 1 18 30
M  V30 33 1 19 31
M  V30 END BOND
M  V30 END CTAB
M  END
