
     RDKit          3D

  0  0  0  0  0  0  0  0  0  0999 V3000
M  V30 BEGIN CTAB
M  V30 COUNTS 29 29 0 0 0
M  V30 BEGIN ATOM
M  V30 1 N -4.26787 1.31313 -0.975588 0
M  V30 2 C -3.1609 0.460526 -0.748835 0
M  V30 3 C -1.92132 0.948451 -0.395454 0
M  V30 4 C -0.84169 0.102697 -0.1753 0
M  V30 5 N -1.09007 -1.20745 -0.329731 0
M  V30 6 C -2.27239 -1.72196 -0.670179 0
M  V30 7 N -3.30481 -0.868575 -0.877623 0
M  V30 8 N -2.52044 -3.10395 -0.829432 0
M  V30 9 N 0.418579 0.638365 0.18737 0
M  V30 10 C 1.57347 -0.190264 0.427006 0
M  V30 11 C 2.78623 0.594775 0.802922 0
M  V30 12 O 3.09961 1.47392 -0.22691 0
M  V30 13 C 2.65502 1.28815 2.14104 0
M  V30 14 C 1.89484 -1.03336 -0.783491 0
M  V30 15 H -5.02736 1.09197 -1.664 0
M  V30 16 H -4.32809 2.20675 -0.427918 0
M  V30 17 H -1.76863 2.01312 -0.28268 0
M  V30 18 H -2.89063 -3.67808 -0.0356763 0
M  V30 19 H -2.33011 -3.54862 -1.75024 0
M  V30 20 H 0.526579 1.66788 0.28755 0
M  V30 21 H 1.28525 -0.894129 1.25101 0
M  V30 22 H 3.63828 -0.139389 0.874375 0
M  V30 23 H 3.93856 1.95263 0.0200835 0
M  V30 24 H 3.51762 1.08593 2.81175 0
M  V30 25 H 2.62166 2.38858 1.98071 0
M  V30 26 H 1.75814 0.912037 2.69066 0
M  V30 27 H 1.9809 -2.1069 -0.509939 0
M  V30 28 H 2.88548 -0.745928 -1.18892 0
M  V30 29 H 1.14409 -0.900307 -1.60255 0
M  V30 END ATOM
M  V30 BEGIN BOND
M  V30 1 1 1 2
M  V30 2 2 2 3
M  V30 3 1 3 4
M  V30 4 2 4 5
M  V30 5 1 5 6
M  V30 6 2 6 7
M  V30 7 1 6 8
M  V30 8 1 4 9
M  V30 9 1 9 10
M  V30 10 1 10 11
M  V30 11 1 11 12
M  V30 12 1 11 13
M  V30 13 1 10 14
M  V30 14 1 7 2
M  V30 15 1 1 15
M  V30 16 1 1 16
M  V30 17 1 3 17
M  V30 18 1 8 18
M  V30 19 1 8 19
M  V30 20 1 9 20
M  V30 21 1 10 21
M  V30 22 1 11 22
M  V30 23 1 12 23
M  V30 24 1 13 24
M  V30 25 1 13 25
M  V30 26 1 13 26
M  V30 27 1 14 27
M  V30 28 1 14 28
M  V30 29 1 14 29
M  V30 END BOND
M  V30 END CTAB
M  END
