
     RDKit          3D

  0  0  0  0  0  0  0  0  0  0999 V3000
M  V30 BEGIN CTAB
M  V30 COUNTS 30 31 0 0 0
M  V30 BEGIN ATOM
M  V30 1 C 4.46135 0.728659 0.211554 0
M  V30 2 C 4.0617 -0.57676 0.842581 0
M  V30 3 C 2.74441 -1.05116 0.361302 0
M  V30 4 N 2.16212 -2.20198 0.777694 0
M  V30 5 N 0.996429 -2.35107 0.171023 0
M  V30 6 C 0.785195 -1.30833 -0.653917 0
M  V30 7 N 1.88352 -0.523196 -0.513193 0
M  V30 8 N 2.06857 0.662021 -1.19353 0
M  V30 9 S -0.639554 -1.02576 -1.7066 0
M  V30 10 C -1.91265 -0.111461 -0.864094 0
M  V30 11 C -1.95761 1.27885 -0.893591 0
M  V30 12 C -2.97613 1.89867 -0.214714 0
M  V30 13 C -3.95357 1.22732 0.491971 0
M  V30 14 C -3.87737 -0.151246 0.499287 0
M  V30 15 C -2.87226 -0.818239 -0.168195 0
M  V30 16 N -2.82112 -2.23899 -0.141701 0
M  V30 17 C -5.01246 1.92255 1.19538 0
M  V30 18 N -5.85958 2.49456 1.74997 0
M  V30 19 H 4.63807 0.633982 -0.873854 0
M  V30 20 H 3.80908 1.56923 0.496168 0
M  V30 21 H 5.47464 0.980426 0.644884 0
M  V30 22 H 4.81646 -1.33683 0.515395 0
M  V30 23 H 4.08723 -0.439839 1.9425 0
M  V30 24 H 1.77318 1.57112 -0.775263 0
M  V30 25 H 2.5187 0.608585 -2.14877 0
M  V30 26 H -1.2018 1.82743 -1.44131 0
M  V30 27 H -3.00942 2.97861 -0.2385 0
M  V30 28 H -4.62117 -0.717318 1.03946 0
M  V30 29 H -3.10536 -2.86019 -0.908021 0
M  V30 30 H -2.46061 -2.66965 0.742148 0
M  V30 END ATOM
M  V30 BEGIN BOND
M  V30 1 1 1 2
M  V30 2 1 2 3
M  V30 3 2 3 4
M  V30 4 1 4 5
M  V30 5 2 5 6
M  V30 6 1 6 7
M  V30 7 1 7 8
M  V30 8 1 6 9
M  V30 9 1 9 10
M  V30 10 2 10 11
M  V30 11 1 11 12
M  V30 12 2 12 13
M  V30 13 1 13 14
M  V30 14 2 14 15
M  V30 15 1 15 16
M  V30 16 1 13 17
M  V30 17 3 17 18
M  V30 18 1 7 3
M  V30 19 1 15 10
M  V30 20 1 1 19
M  V30 21 1 1 20
M  V30 22 1 1 21
M  V30 23 1 2 22
M  V30 24 1 2 23
M  V30 25 1 8 24
M  V30 26 1 8 25
M  V30 27 1 11 26
M  V30 28 1 12 27
M  V30 29 1 14 28
M  V30 30 1 16 29
M  V30 31 1 16 30
M  V30 END BOND
M  V30 END CTAB
M  END
