
     RDKit          3D

  0  0  0  0  0  0  0  0  0  0999 V3000
M  V30 BEGIN CTAB
M  V30 COUNTS 36 38 0 0 0
M  V30 BEGIN ATOM
M  V30 1 C -5.44448 -1.70322 0.192926 0
M  V30 2 O -4.05036 -1.72931 0.107846 0
M  V30 3 C -3.25695 -0.592487 0.102301 0
M  V30 4 C -3.87222 0.624072 0.184452 0
M  V30 5 C -3.22161 1.83041 0.190058 0
M  V30 6 N -3.91321 3.05744 0.277207 0
M  V30 7 C -1.84474 1.7694 0.104942 0
M  V30 8 C -1.19394 0.533346 0.019921 0
M  V30 9 C -1.86067 -0.664162 0.0156169 0
M  V30 10 N -1.15359 -1.74817 -0.0671397 0
M  V30 11 C 0.154459 -1.68337 -0.143439 0
M  V30 12 S 0.426988 0.00311933 -0.0972771 0
M  V30 13 N 1.10585 -2.76552 -0.240604 0
M  V30 14 C 2.46889 -2.59944 -0.316818 0
M  V30 15 O 3.20114 -3.6138 -0.397731 0
M  V30 16 C 3.13177 -1.31597 -0.310327 0
M  V30 17 C 3.5546 -0.697211 0.863634 0
M  V30 18 C 4.20317 0.519873 0.865851 0
M  V30 19 C 4.46278 1.18254 -0.308434 0
M  V30 20 C 4.05216 0.588283 -1.48895 0
M  V30 21 C 3.40351 -0.62834 -1.49497 0
M  V30 22 N 5.13413 2.44268 -0.309682 0
M  V30 23 H -5.74688 -1.01487 1.03602 0
M  V30 24 H -5.87688 -2.69616 0.404973 0
M  V30 25 H -5.93384 -1.29443 -0.718895 0
M  V30 26 H -4.97138 0.699347 0.253191 0
M  V30 27 H -3.85594 3.72672 -0.518378 0
M  V30 28 H -4.48514 3.34406 1.09385 0
M  V30 29 H -1.24616 2.66371 0.102103 0
M  V30 30 H 0.694644 -3.7477 -0.251446 0
M  V30 31 H 3.35152 -1.21693 1.79315 0
M  V30 32 H 4.51898 0.973557 1.79768 0
M  V30 33 H 4.25214 1.10036 -2.40352 0
M  V30 34 H 3.07106 -1.11582 -2.40569 0
M  V30 35 H 5.41778 2.85493 0.605029 0
M  V30 36 H 5.32241 2.91304 -1.2007 0
M  V30 END ATOM
M  V30 BEGIN BOND
M  V30 1 1 1 2
M  V30 2 1 2 3
M  V30 3 2 3 4
M  V30 4 1 4 5
M  V30 5 1 5 6
M  V30 6 2 5 7
M  V30 7 1 7 8
M  V30 8 2 8 9
M  V30 9 1 9 10
M  V30 10 2 10 11
M  V30 11 1 11 12
M  V30 12 1 11 13
M  V30 13 1 13 14
M  V30 14 2 14 15
M  V30 15 1 14 16
M  V30 16 2 16 17
M  V30 17 1 17 18
M  V30 18 2 18 19
M  V30 19 1 19 20
M  V30 20 2 20 21
M  V30 21 1 19 22
M  V30 22 1 9 3
M  V30 23 1 21 16
M  V30 24 1 12 8
M  V30 25 1 1 23
M  V30 26 1 1 24
M  V30 27 1 1 25
M  V30 28 1 4 26
M  V30 29 1 6 27
M  V30 30 1 6 28
M  V30 31 1 7 29
M  V30 32 1 13 30
M  V30 33 1 17 31
M  V30 34 1 18 32
M  V30 35 1 20 33
M  V30 36 1 21 34
M  V30 37 1 22 35
M  V30 38 1 22 36
M  V30 END BOND
M  V30 END CTAB
M  END
