
     RDKit          3D

  0  0  0  0  0  0  0  0  0  0999 V3000
M  V30 BEGIN CTAB
M  V30 COUNTS 48 51 0 0 0
M  V30 BEGIN ATOM
M  V30 1 N 10.2161 -0.342209 -0.268287 0
M  V30 2 C 8.79558 -0.2138 -0.227459 0
M  V30 3 C 8.04907 -0.893823 0.711221 0
M  V30 4 C 6.67785 -0.763529 0.743367 0
M  V30 5 C 5.97863 0.0376502 -0.14153 0
M  V30 6 C 6.73686 0.720869 -1.08582 0
M  V30 7 C 8.10722 0.587231 -1.11373 0
M  V30 8 C 4.52842 0.163163 -0.0919553 0
M  V30 9 C 3.89374 1.3269 -0.466502 0
M  V30 10 C 2.52166 1.46902 -0.428165 0
M  V30 11 C 1.78469 0.372039 0.0116104 0
M  V30 12 C 2.36973 -0.81097 0.396259 0
M  V30 13 C 3.74711 -0.888957 0.334685 0
M  V30 14 N 0.36304 0.513149 0.0527933 0
M  V30 15 N -0.351565 -0.530309 0.0249711 0
M  V30 16 C -1.75638 -0.377685 0.0661784 0
M  V30 17 C -2.36219 0.662113 -0.587237 0
M  V30 18 C -3.74719 0.815491 -0.549706 0
M  V30 19 C -4.52511 -0.0830535 0.149443 0
M  V30 20 C -3.88165 -1.11584 0.79421 0
M  V30 21 C -2.50781 -1.28681 0.769963 0
M  V30 22 C -5.97859 0.0163186 0.2302 0
M  V30 23 C -6.77784 -1.10989 0.345097 0
M  V30 24 C -8.14378 -1.07209 0.423594 0
M  V30 25 C -8.76486 0.144199 0.387278 0
M  V30 26 N -10.1667 0.255892 0.463241 0
M  V30 27 C -8.01086 1.29612 0.273527 0
M  V30 28 C -6.62775 1.23685 0.195307 0
M  V30 29 H 10.6065 -1.12126 -0.82939 0
M  V30 30 H 10.8668 0.302249 0.23284 0
M  V30 31 H 8.53605 -1.54386 1.44044 0
M  V30 32 H 6.07943 -1.30356 1.48966 0
M  V30 33 H 6.20688 1.36159 -1.79761 0
M  V30 34 H 8.71521 1.12177 -1.85445 0
M  V30 35 H 4.48866 2.15472 -0.800852 0
M  V30 36 H 2.01176 2.38551 -0.722496 0
M  V30 37 H 1.74489 -1.62989 0.729528 0
M  V30 38 H 4.18818 -1.83837 0.64511 0
M  V30 39 H -1.7436 1.37541 -1.14241 0
M  V30 40 H -4.22575 1.6219 -1.05553 0
M  V30 41 H -4.45825 -1.841 1.35315 0
M  V30 42 H -2.07489 -2.12486 1.30244 0
M  V30 43 H -6.3055 -2.08274 0.375408 0
M  V30 44 H -8.74986 -1.96578 0.513235 0
M  V30 45 H -10.6819 0.0798098 1.3548 0
M  V30 46 H -10.7701 0.518972 -0.359575 0
M  V30 47 H -8.52254 2.25218 0.246396 0
M  V30 48 H -6.07941 2.14918 0.108172 0
M  V30 END ATOM
M  V30 BEGIN BOND
M  V30 1 1 1 2
M  V30 2 2 2 3
M  V30 3 1 3 4
M  V30 4 2 4 5
M  V30 5 1 5 6
M  V30 6 2 6 7
M  V30 7 1 5 8
M  V30 8 2 8 9
M  V30 9 1 9 10
M  V30 10 2 10 11
M  V30 11 1 11 12
M  V30 12 2 12 13
M  V30 13 1 11 14
M  V30 14 2 14 15 CFG=2
M  V30 15 1 15 16
M  V30 16 2 16 17
M  V30 17 1 17 18
M  V30 18 2 18 19
M  V30 19 1 19 20
M  V30 20 2 20 21
M  V30 21 1 19 22
M  V30 22 2 22 23
M  V30 23 1 23 24
M  V30 24 2 24 25
M  V30 25 1 25 26
M  V30 26 1 25 27
M  V30 27 2 27 28
M  V30 28 1 7 2
M  V30 29 1 13 8
M  V30 30 1 21 16
M  V30 31 1 28 22
M  V30 32 1 1 29
M  V30 33 1 1 30
M  V30 34 1 3 31
M  V30 35 1 4 32
M  V30 36 1 6 33
M  V30 37 1 7 34
M  V30 38 1 9 35
M  V30 39 1 10 36
M  V30 40 1 12 37
M  V30 41 1 13 38
M  V30 42 1 17 39
M  V30 43 1 18 40
M  V30 44 1 20 41
M  V30 45 1 21 42
M  V30 46 1 23 43
M  V30 47 1 24 44
M  V30 48 1 26 45
M  V30 49 1 26 46
M  V30 50 1 27 47
M  V30 51 1 28 48
M  V30 END BOND
M  V30 END CTAB
M  END
