
     RDKit          3D

  0  0  0  0  0  0  0  0  0  0999 V3000
M  V30 BEGIN CTAB
M  V30 COUNTS 29 30 0 0 0
M  V30 BEGIN ATOM
M  V30 1 N -3.41615 2.91777 0.343254 0
M  V30 2 C -3.0666 1.53659 0.260374 0
M  V30 3 N -1.76477 1.18129 0.17444 0
M  V30 4 C -1.36516 -0.0917148 0.0939136 0
M  V30 5 O -0.0228842 -0.380891 0.00889248 0
M  V30 6 C 0.903742 0.679111 0.00881631 0
M  V30 7 C 2.29948 0.233915 -0.0863736 0
M  V30 8 C 2.86049 0.0907127 -1.33567 0
M  V30 9 C 4.1763 -0.326671 -1.50391 0
M  V30 10 C 4.9297 -0.601385 -0.389576 0
M  V30 11 C 4.39516 -0.467256 0.879337 0
M  V30 12 C 3.06709 -0.0451226 1.02004 0
M  V30 13 C -2.33136 -1.0729 0.0997803 0
M  V30 14 N -2.00109 -2.45086 0.0180674 0
M  V30 15 O -1.12559 -2.98531 0.742001 0
M  V30 16 C -3.66281 -0.686513 0.18874 0
M  V30 17 N -4.62401 -1.72582 0.191646 0
M  V30 18 N -4.03389 0.610221 0.26885 0
M  V30 19 H -4.19741 3.30383 -0.216298 0
M  V30 20 H -2.8889 3.55414 0.968214 0
M  V30 21 H 0.717778 1.2802 0.945321 0
M  V30 22 H 0.646191 1.31869 -0.875663 0
M  V30 23 H 2.28053 0.30322 -2.22852 0
M  V30 24 H 4.62531 -0.442061 -2.47747 0
M  V30 25 H 5.96058 -0.929154 -0.4952 0
M  V30 26 H 4.9715 -0.678646 1.77379 0
M  V30 27 H 2.61762 0.070292 1.99795 0
M  V30 28 H -5.48384 -1.61379 -0.362784 0
M  V30 29 H -4.46699 -2.58189 0.739706 0
M  V30 END ATOM
M  V30 BEGIN BOND
M  V30 1 1 1 2
M  V30 2 2 2 3
M  V30 3 1 3 4
M  V30 4 1 4 5
M  V30 5 1 5 6
M  V30 6 1 6 7
M  V30 7 2 7 8
M  V30 8 1 8 9
M  V30 9 2 9 10
M  V30 10 1 10 11
M  V30 11 2 11 12
M  V30 12 2 4 13
M  V30 13 1 13 14
M  V30 14 2 14 15
M  V30 15 1 13 16
M  V30 16 1 16 17
M  V30 17 2 16 18
M  V30 18 1 18 2
M  V30 19 1 12 7
M  V30 20 1 1 19
M  V30 21 1 1 20
M  V30 22 1 6 21
M  V30 23 1 6 22
M  V30 24 1 8 23
M  V30 25 1 9 24
M  V30 26 1 10 25
M  V30 27 1 11 26
M  V30 28 1 12 27
M  V30 29 1 17 28
M  V30 30 1 17 29
M  V30 END BOND
M  V30 END CTAB
M  END
