
     RDKit          3D

  0  0  0  0  0  0  0  0  0  0999 V3000
M  V30 BEGIN CTAB
M  V30 COUNTS 32 35 0 0 0
M  V30 BEGIN ATOM
M  V30 1 N 5.39178 0.391514 -0.456163 0
M  V30 2 C 4.00327 0.649355 -0.454972 0
M  V30 3 C 3.11093 -0.344303 -0.0605769 0
M  V30 4 C 1.74968 -0.109596 -0.0532645 0
M  V30 5 C 1.29425 1.13091 -0.44533 0
M  V30 6 C 2.19437 2.11142 -0.835761 0
M  V30 7 C 3.55629 1.89596 -0.84965 0
M  V30 8 N -0.0307439 1.33766 -0.430825 0
M  V30 9 C -0.912257 0.364294 -0.0439973 0
M  V30 10 C -2.36912 0.448665 0.0205013 0
M  V30 11 C -2.81445 -0.775087 0.464467 0
M  V30 12 C -1.66358 -1.67926 0.697848 0
M  V30 13 C -0.494561 -0.87527 0.350159 0
M  V30 14 C 0.891048 -1.11121 0.341691 0
M  V30 15 N 1.32281 -2.39279 0.749224 0
M  V30 16 C -4.19024 -0.957154 0.614254 0
M  V30 17 C -5.06251 0.0635568 0.323472 0
M  V30 18 C -4.62464 1.28994 -0.120907 0
M  V30 19 C -3.27349 1.48029 -0.271932 0
M  V30 20 H 6.00098 0.745469 -1.24142 0
M  V30 21 H 5.79458 -0.152507 0.331824 0
M  V30 22 H 3.44637 -1.32297 0.250258 0
M  V30 23 H 1.80747 3.0696 -1.13635 0
M  V30 24 H 4.22602 2.69414 -1.16344 0
M  V30 25 H -1.77647 -2.60108 0.0929837 0
M  V30 26 H -1.62029 -2.00837 1.77295 0
M  V30 27 H 1.18044 -3.19743 0.0993057 0
M  V30 28 H 1.77218 -2.55518 1.66548 0
M  V30 29 H -4.52723 -1.91597 0.961356 0
M  V30 30 H -6.13469 -0.146033 0.463176 0
M  V30 31 H -5.36201 2.04366 -0.329645 0
M  V30 32 H -2.88616 2.42775 -0.618372 0
M  V30 END ATOM
M  V30 BEGIN BOND
M  V30 1 1 1 2
M  V30 2 2 2 3
M  V30 3 1 3 4
M  V30 4 2 4 5
M  V30 5 1 5 6
M  V30 6 2 6 7
M  V30 7 1 5 8
M  V30 8 2 8 9
M  V30 9 1 9 10
M  V30 10 2 10 11
M  V30 11 1 11 12
M  V30 12 1 12 13
M  V30 13 2 13 14
M  V30 14 1 14 15
M  V30 15 1 11 16
M  V30 16 2 16 17
M  V30 17 1 17 18
M  V30 18 2 18 19
M  V30 19 1 7 2
M  V30 20 1 13 9
M  V30 21 1 14 4
M  V30 22 1 19 10
M  V30 23 1 1 20
M  V30 24 1 1 21
M  V30 25 1 3 22
M  V30 26 1 6 23
M  V30 27 1 7 24
M  V30 28 1 12 25
M  V30 29 1 12 26
M  V30 30 1 15 27
M  V30 31 1 15 28
M  V30 32 1 16 29
M  V30 33 1 17 30
M  V30 34 1 18 31
M  V30 35 1 19 32
M  V30 END BOND
M  V30 END CTAB
M  END
