
     RDKit          3D

  0  0  0  0  0  0  0  0  0  0999 V3000
M  V30 BEGIN CTAB
M  V30 COUNTS 43 45 0 0 0
M  V30 BEGIN ATOM
M  V30 1 N -7.28453 1.48533 -1.95666 0
M  V30 2 C -6.45293 0.923363 -0.954875 0
M  V30 3 C -6.97135 0.502518 0.267336 0
M  V30 4 C -6.13362 -0.0386936 1.21654 0
M  V30 5 N -6.63399 -0.473976 2.46585 0
M  V30 6 C -4.77242 -0.146925 0.912385 0
M  V30 7 C -4.25442 0.261081 -0.27819 0
M  V30 8 C -5.10488 0.802283 -1.22247 0
M  V30 9 C -2.80919 0.154886 -0.594881 0
M  V30 10 O -2.50615 0.155907 -1.81625 0
M  V30 11 N -1.90633 0.0639148 0.473152 0
M  V30 12 C -0.515597 -0.0522028 0.356133 0
M  V30 13 C 0.0973083 -0.449447 -0.786796 0
M  V30 14 C 1.48997 -0.542599 -0.903964 0
M  V30 15 C 2.27879 -0.226494 0.162016 0
M  V30 16 C 1.65149 0.184047 1.34629 0
M  V30 17 C 0.299509 0.27184 1.45085 0
M  V30 18 C 3.75095 -0.297526 0.122282 0
M  V30 19 C 4.40774 -0.665074 -0.926495 0
M  V30 20 C 5.81712 -0.789688 -1.13833 0
M  V30 21 O 6.15962 -1.19636 -2.34526 0
M  V30 22 C 6.95912 -0.551603 -0.269119 0
M  V30 23 C 7.12447 -0.141134 1.01088 0
M  V30 24 C 8.37532 -0.029428 1.5054 0
M  V30 25 C 9.40973 -0.338382 0.68245 0
M  V30 26 S 8.63786 -0.775918 -0.754165 0
M  V30 27 H -7.22843 1.21674 -2.95939 0
M  V30 28 H -7.98052 2.19702 -1.67526 0
M  V30 29 H -8.02563 0.615307 0.43357 0
M  V30 30 H -6.83623 -1.4979 2.65032 0
M  V30 31 H -6.82305 0.183032 3.24836 0
M  V30 32 H -4.13067 -0.581534 1.67072 0
M  V30 33 H -4.71474 1.12825 -2.16442 0
M  V30 34 H -2.28834 0.0861563 1.47705 0
M  V30 35 H -0.439999 -0.744566 -1.7036 0
M  V30 36 H 1.87993 -0.864563 -1.84538 0
M  V30 37 H 2.2846 0.430055 2.17913 0
M  V30 38 H -0.192796 0.594135 2.37989 0
M  V30 39 H 4.28725 -0.0266108 1.01892 0
M  V30 40 H 3.74898 -0.924855 -1.80379 0
M  V30 41 H 6.25755 0.105832 1.66385 0
M  V30 42 H 8.59988 0.302666 2.55197 0
M  V30 43 H 10.4886 -0.308882 0.903789 0
M  V30 END ATOM
M  V30 BEGIN BOND
M  V30 1 1 1 2
M  V30 2 2 2 3
M  V30 3 1 3 4
M  V30 4 1 4 5
M  V30 5 2 4 6
M  V30 6 1 6 7
M  V30 7 2 7 8
M  V30 8 1 7 9
M  V30 9 2 9 10
M  V30 10 1 9 11
M  V30 11 1 11 12
M  V30 12 2 12 13
M  V30 13 1 13 14
M  V30 14 2 14 15
M  V30 15 1 15 16
M  V30 16 2 16 17
M  V30 17 1 15 18
M  V30 18 2 18 19
M  V30 19 1 19 20
M  V30 20 2 20 21
M  V30 21 1 20 22
M  V30 22 2 22 23
M  V30 23 1 23 24
M  V30 24 2 24 25
M  V30 25 1 25 26
M  V30 26 1 8 2
M  V30 27 1 17 12
M  V30 28 1 26 22
M  V30 29 1 1 27
M  V30 30 1 1 28
M  V30 31 1 3 29
M  V30 32 1 5 30
M  V30 33 1 5 31
M  V30 34 1 6 32
M  V30 35 1 8 33
M  V30 36 1 11 34
M  V30 37 1 13 35
M  V30 38 1 14 36
M  V30 39 1 16 37
M  V30 40 1 17 38
M  V30 41 1 18 39
M  V30 42 1 19 40
M  V30 43 1 23 41
M  V30 44 1 24 42
M  V30 45 1 25 43
M  V30 END BOND
M  V30 END CTAB
M  END
