
     RDKit          3D

  0  0  0  0  0  0  0  0  0  0999 V3000
M  V30 BEGIN CTAB
M  V30 COUNTS 44 47 0 0 0
M  V30 BEGIN ATOM
M  V30 1 N 0.673446 -4.68233 1.40229 0
M  V30 2 C -0.436034 -3.8102 1.13227 0
M  V30 3 N -1.73393 -4.06674 1.14557 0
M  V30 4 N -2.43304 -2.99541 0.840904 0
M  V30 5 C -1.56957 -2.00284 0.620167 0
M  V30 6 C -0.294583 -2.47662 0.794223 0
M  V30 7 N 0.943385 -1.77506 0.663747 0
M  V30 8 N 1.14696 -0.89244 -0.219677 0
M  V30 9 C 2.38577 -0.194442 -0.345707 0
M  V30 10 C 2.52718 1.11632 0.0790451 0
M  V30 11 C 3.73123 1.77785 -0.0494735 0
M  V30 12 C 4.84618 1.18155 -0.599695 0
M  V30 13 C 4.71028 -0.127006 -1.02533 0
M  V30 14 C 3.5052 -0.782641 -0.8944 0
M  V30 15 S 6.37591 1.98191 -0.777323 0
M  V30 16 O 6.56263 2.97883 0.341599 0
M  V30 17 O 7.51693 1.00729 -0.748199 0
M  V30 18 N 6.408 2.76247 -2.31632 0
M  V30 19 N -2.06492 -0.791811 0.287795 0
M  V30 20 C -3.40593 -0.565827 0.174943 0
M  V30 21 C -4.25987 -1.6001 0.406819 0
M  V30 22 C -3.75825 -2.84876 0.749147 0
M  V30 23 O -4.58822 -3.76461 0.951467 0
M  V30 24 C -3.83503 0.771717 -0.187351 0
M  V30 25 C -3.0059 1.83882 -0.428769 0
M  V30 26 C -3.4858 3.1086 -0.775639 0
M  V30 27 C -4.83425 3.32796 -0.886991 0
M  V30 28 C -5.68513 2.28379 -0.65237 0
M  V30 29 C -5.19693 1.01807 -0.306209 0
M  V30 30 H 1.52672 -4.63165 0.82965 0
M  V30 31 H 0.555183 -5.34647 2.19244 0
M  V30 32 H 1.64819 1.59576 0.516151 0
M  V30 33 H 3.80409 2.81857 0.29971 0
M  V30 34 H 5.59505 -0.611693 -1.46606 0
M  V30 35 H 3.44493 -1.79522 -1.23735 0
M  V30 36 H 5.4307 3.06776 -2.52509 0
M  V30 37 H 6.62955 2.00589 -3.02616 0
M  V30 38 H -1.35606 -0.0493675 0.125247 0
M  V30 39 H -5.34563 -1.46041 0.326598 0
M  V30 40 H -1.93619 1.68474 -0.345577 0
M  V30 41 H -2.77201 3.90123 -0.950984 0
M  V30 42 H -5.23509 4.30585 -1.15539 0
M  V30 43 H -6.76738 2.4533 -0.740061 0
M  V30 44 H -5.96775 0.283355 -0.148109 0
M  V30 END ATOM
M  V30 BEGIN BOND
M  V30 1 1 1 2
M  V30 2 2 2 3
M  V30 3 1 3 4
M  V30 4 1 4 5
M  V30 5 2 5 6
M  V30 6 1 6 7
M  V30 7 2 7 8
M  V30 8 1 8 9
M  V30 9 2 9 10
M  V30 10 1 10 11
M  V30 11 2 11 12
M  V30 12 1 12 13
M  V30 13 2 13 14
M  V30 14 1 12 15
M  V30 15 2 15 16
M  V30 16 2 15 17
M  V30 17 1 15 18
M  V30 18 1 5 19
M  V30 19 1 19 20
M  V30 20 2 20 21
M  V30 21 1 21 22
M  V30 22 2 22 23
M  V30 23 1 20 24
M  V30 24 2 24 25
M  V30 25 1 25 26
M  V30 26 2 26 27
M  V30 27 1 27 28
M  V30 28 2 28 29
M  V30 29 1 6 2
M  V30 30 1 14 9
M  V30 31 1 29 24
M  V30 32 1 22 4
M  V30 33 1 1 30
M  V30 34 1 1 31
M  V30 35 1 10 32
M  V30 36 1 11 33
M  V30 37 1 13 34
M  V30 38 1 14 35
M  V30 39 1 18 36
M  V30 40 1 18 37
M  V30 41 1 19 38
M  V30 42 1 21 39
M  V30 43 1 25 40
M  V30 44 1 26 41
M  V30 45 1 27 42
M  V30 46 1 28 43
M  V30 47 1 29 44
M  V30 END BOND
M  V30 END CTAB
M  END
