
     RDKit          3D

  0  0  0  0  0  0  0  0  0  0999 V3000
M  V30 BEGIN CTAB
M  V30 COUNTS 40 39 0 0 0
M  V30 BEGIN ATOM
M  V30 1 N -6.21567 2.17687 0.177796 0
M  V30 2 C -4.93849 1.56 0.386866 0
M  V30 3 C -5.03346 0.0422859 0.428959 0
M  V30 4 C -3.70511 -0.570241 0.672173 0
M  V30 5 C -2.67525 -0.291929 -0.421101 0
M  V30 6 N -1.45928 -0.907453 0.00627827 0
M  V30 7 C -0.384741 -0.925451 -0.924254 0
M  V30 8 C 0.858854 -1.40384 -0.209819 0
M  V30 9 C 2.05091 -1.53041 -1.12811 0
M  V30 10 N 3.22734 -1.9654 -0.393286 0
M  V30 11 C 3.73645 -0.922074 0.4812 0
M  V30 12 C 4.39324 0.186992 -0.319347 0
M  V30 13 C 4.86879 1.24791 0.634904 0
M  V30 14 N 5.53646 2.341 -0.0520487 0
M  V30 15 H -6.88947 1.50286 -0.227631 0
M  V30 16 H -6.12434 3.03055 -0.406452 0
M  V30 17 H -4.23547 1.83576 -0.421149 0
M  V30 18 H -4.47798 1.84467 1.37135 0
M  V30 19 H -5.69939 -0.239698 1.26759 0
M  V30 20 H -5.52592 -0.360286 -0.500354 0
M  V30 21 H -3.79018 -1.69686 0.723107 0
M  V30 22 H -3.30779 -0.154645 1.61182 0
M  V30 23 H -3.0207 -0.615241 -1.42217 0
M  V30 24 H -2.49931 0.820488 -0.517256 0
M  V30 25 H -1.22905 -0.796594 0.990689 0
M  V30 26 H -0.274488 0.0965461 -1.33682 0
M  V30 27 H -0.60057 -1.56809 -1.81385 0
M  V30 28 H 1.03335 -0.667104 0.621587 0
M  V30 29 H 0.589993 -2.38255 0.249592 0
M  V30 30 H 2.21998 -0.632977 -1.71532 0
M  V30 31 H 1.81518 -2.36671 -1.83283 0
M  V30 32 H 3.94493 -2.24518 -1.1085 0
M  V30 33 H 4.54373 -1.42445 1.09159 0
M  V30 34 H 2.98889 -0.557663 1.19384 0
M  V30 35 H 3.72297 0.536486 -1.12312 0
M  V30 36 H 5.33999 -0.235945 -0.805593 0
M  V30 37 H 5.50767 0.810667 1.39164 0
M  V30 38 H 3.95218 1.70518 1.10308 0
M  V30 39 H 5.17803 2.47633 -1.0268 0
M  V30 40 H 6.57773 2.24619 -0.00679425 0
M  V30 END ATOM
M  V30 BEGIN BOND
M  V30 1 1 1 2
M  V30 2 1 2 3
M  V30 3 1 3 4
M  V30 4 1 4 5
M  V30 5 1 5 6
M  V30 6 1 6 7
M  V30 7 1 7 8
M  V30 8 1 8 9
M  V30 9 1 9 10
M  V30 10 1 10 11
M  V30 11 1 11 12
M  V30 12 1 12 13
M  V30 13 1 13 14
M  V30 14 1 1 15
M  V30 15 1 1 16
M  V30 16 1 2 17
M  V30 17 1 2 18
M  V30 18 1 3 19
M  V30 19 1 3 20
M  V30 20 1 4 21
M  V30 21 1 4 22
M  V30 22 1 5 23
M  V30 23 1 5 24
M  V30 24 1 6 25
M  V30 25 1 7 26
M  V30 26 1 7 27
M  V30 27 1 8 28
M  V30 28 1 8 29
M  V30 29 1 9 30
M  V30 30 1 9 31
M  V30 31 1 10 32
M  V30 32 1 11 33
M  V30 33 1 11 34
M  V30 34 1 12 35
M  V30 35 1 12 36
M  V30 36 1 13 37
M  V30 37 1 13 38
M  V30 38 1 14 39
M  V30 39 1 14 40
M  V30 END BOND
M  V30 END CTAB
M  END
