
     RDKit          3D

  0  0  0  0  0  0  0  0  0  0999 V3000
M  V30 BEGIN CTAB
M  V30 COUNTS 27 28 0 0 0
M  V30 BEGIN ATOM
M  V30 1 N -3.80062 1.88058 2.2184 0
M  V30 2 C -3.21983 1.01816 1.25757 0
M  V30 3 C -1.86118 0.788549 1.20461 0
M  V30 4 C -1.26934 -0.0554273 0.268273 0
M  V30 5 C -2.13457 -0.656497 -0.615374 0
M  V30 6 C -3.48616 -0.439094 -0.576221 0
M  V30 7 N -4.36807 -1.05659 -1.48283 0
M  V30 8 N -4.001 0.393871 0.359571 0
M  V30 9 N 0.117518 -0.21941 0.300646 0
M  V30 10 N 0.937108 0.135728 -0.581472 0
M  V30 11 C 2.34533 -0.0564791 -0.497361 0
M  V30 12 C 3.2276 0.993894 -0.306597 0
M  V30 13 C 4.59547 0.76788 -0.229557 0
M  V30 14 C 5.1002 -0.510808 -0.3421 0
M  V30 15 C 4.24012 -1.57331 -0.532611 0
M  V30 16 C 2.87017 -1.3279 -0.607523 0
M  V30 17 H -3.96981 1.52541 3.17012 0
M  V30 18 H -4.0742 2.86836 2.02669 0
M  V30 19 H -1.25808 1.313 1.95003 0
M  V30 20 H -1.72551 -1.31506 -1.3549 0
M  V30 21 H -5.40374 -1.10427 -1.28408 0
M  V30 22 H -4.05692 -1.49588 -2.38851 0
M  V30 23 H 2.83576 1.98617 -0.21927 0
M  V30 24 H 5.30826 1.56928 -0.0810046 0
M  V30 25 H 6.16394 -0.705215 -0.284388 0
M  V30 26 H 4.6557 -2.56248 -0.617764 0
M  V30 27 H 2.23185 -2.16248 -0.754338 0
M  V30 END ATOM
M  V30 BEGIN BOND
M  V30 1 1 1 2
M  V30 2 2 2 3
M  V30 3 1 3 4
M  V30 4 2 4 5
M  V30 5 1 5 6
M  V30 6 1 6 7
M  V30 7 2 6 8
M  V30 8 1 4 9
M  V30 9 2 9 10
M  V30 10 1 10 11
M  V30 11 2 11 12
M  V30 12 1 12 13
M  V30 13 2 13 14
M  V30 14 1 14 15
M  V30 15 2 15 16
M  V30 16 1 8 2
M  V30 17 1 16 11
M  V30 18 1 1 17
M  V30 19 1 1 18
M  V30 20 1 3 19
M  V30 21 1 5 20
M  V30 22 1 7 21
M  V30 23 1 7 22
M  V30 24 1 12 23
M  V30 25 1 13 24
M  V30 26 1 14 25
M  V30 27 1 15 26
M  V30 28 1 16 27
M  V30 END BOND
M  V30 END CTAB
M  END
