
     RDKit          3D

  0  0  0  0  0  0  0  0  0  0999 V3000
M  V30 BEGIN CTAB
M  V30 COUNTS 27 27 0 0 0
M  V30 BEGIN ATOM
M  V30 1 N -2.78413 1.41232 0.22958 0
M  V30 2 C -1.58037 1.0518 -0.462563 0
M  V30 3 C -0.329653 1.79716 -0.0352727 0
M  V30 4 C 0.403279 0.471051 -0.230898 0
M  V30 5 C -0.899389 -0.209747 0.0655075 0
M  V30 6 C -1.14847 -1.43919 -0.774197 0
M  V30 7 C -1.22725 -0.458209 1.49582 0
M  V30 8 N 1.4871 0.236108 0.65517 0
M  V30 9 S 2.89149 -0.150555 -0.26517 0
M  V30 10 O 4.08193 0.33817 0.493711 0
M  V30 11 O 2.74778 0.515909 -1.60165 0
M  V30 12 N 3.02114 -1.85242 -0.542929 0
M  V30 13 H -3.29297 2.10641 -0.354016 0
M  V30 14 H -2.61697 1.72077 1.20696 0
M  V30 15 H -1.70288 1.04146 -1.55403 0
M  V30 16 H -0.294602 2.07881 1.02398 0
M  V30 17 H -0.0114078 2.59955 -0.7238 0
M  V30 18 H 0.657691 0.365053 -1.30039 0
M  V30 19 H -0.523662 -1.35229 -1.67439 0
M  V30 20 H -2.21869 -1.52996 -0.981254 0
M  V30 21 H -0.861005 -2.31456 -0.148346 0
M  V30 22 H -2.34286 -0.448259 1.59526 0
M  V30 23 H -0.932236 -1.50981 1.76035 0
M  V30 24 H -0.775104 0.244243 2.20933 0
M  V30 25 H 1.31068 -0.404621 1.43304 0
M  V30 26 H 3.1406 -2.06733 -1.5487 0
M  V30 27 H 3.79997 -2.24188 0.0288905 0
M  V30 END ATOM
M  V30 BEGIN BOND
M  V30 1 1 1 2
M  V30 2 1 2 3
M  V30 3 1 3 4
M  V30 4 1 4 5
M  V30 5 1 5 6
M  V30 6 1 5 7
M  V30 7 1 4 8
M  V30 8 1 8 9
M  V30 9 2 9 10
M  V30 10 2 9 11
M  V30 11 1 9 12
M  V30 12 1 5 2
M  V30 13 1 1 13
M  V30 14 1 1 14
M  V30 15 1 2 15
M  V30 16 1 3 16
M  V30 17 1 3 17
M  V30 18 1 4 18
M  V30 19 1 6 19
M  V30 20 1 6 20
M  V30 21 1 6 21
M  V30 22 1 7 22
M  V30 23 1 7 23
M  V30 24 1 7 24
M  V30 25 1 8 25
M  V30 26 1 12 26
M  V30 27 1 12 27
M  V30 END BOND
M  V30 END CTAB
M  END
