
     RDKit          3D

  0  0  0  0  0  0  0  0  0  0999 V3000
M  V30 BEGIN CTAB
M  V30 COUNTS 32 32 0 0 0
M  V30 BEGIN ATOM
M  V30 1 N -4.11234 -0.629988 -0.49103 0
M  V30 2 C -2.96136 -0.37014 -1.30888 0
M  V30 3 C -1.79991 0.186214 -0.505439 0
M  V30 4 N -2.11182 1.4146 0.142809 0
M  V30 5 C -1.41986 -0.840522 0.542253 0
M  V30 6 C -0.214272 -0.379558 1.33188 0
M  V30 7 C 0.861095 0.187405 0.46338 0
M  V30 8 C 0.624104 -0.30197 -0.949231 0
M  V30 9 C -0.643945 0.405007 -1.44009 0
M  V30 10 C 2.25266 -0.217274 0.94828 0
M  V30 11 S 3.49025 0.511408 -0.159112 0
M  V30 12 C 5.14368 0.0626434 0.372031 0
M  V30 13 H -4.03345 -0.101943 0.40477 0
M  V30 14 H -4.18005 -1.65307 -0.297837 0
M  V30 15 H -2.66184 -1.29353 -1.81846 0
M  V30 16 H -3.24137 0.359361 -2.11676 0
M  V30 17 H -1.37408 2.12284 0.157681 0
M  V30 18 H -2.71075 1.35001 0.967814 0
M  V30 19 H -1.2427 -1.8372 0.0953107 0
M  V30 20 H -2.26741 -0.883759 1.25866 0
M  V30 21 H -0.515337 0.294686 2.16463 0
M  V30 22 H 0.213756 -1.29327 1.84007 0
M  V30 23 H 0.865399 1.29359 0.423841 0
M  V30 24 H 0.476153 -1.39239 -0.909517 0
M  V30 25 H 1.47114 0.0189254 -1.55465 0
M  V30 26 H -0.853413 -0.00489862 -2.43958 0
M  V30 27 H -0.391757 1.48274 -1.54257 0
M  V30 28 H 2.35099 -1.30947 1.02156 0
M  V30 29 H 2.45045 0.192177 1.95877 0
M  V30 30 H 5.76124 -0.280644 -0.506097 0
M  V30 31 H 5.63642 0.99023 0.76079 0
M  V30 32 H 5.13833 -0.668306 1.18473 0
M  V30 END ATOM
M  V30 BEGIN BOND
M  V30 1 1 1 2
M  V30 2 1 2 3
M  V30 3 1 3 4
M  V30 4 1 3 5
M  V30 5 1 5 6
M  V30 6 1 6 7
M  V30 7 1 7 8
M  V30 8 1 8 9
M  V30 9 1 7 10
M  V30 10 1 10 11
M  V30 11 1 11 12
M  V30 12 1 9 3
M  V30 13 1 1 13
M  V30 14 1 1 14
M  V30 15 1 2 15
M  V30 16 1 2 16
M  V30 17 1 4 17
M  V30 18 1 4 18
M  V30 19 1 5 19
M  V30 20 1 5 20
M  V30 21 1 6 21
M  V30 22 1 6 22
M  V30 23 1 7 23
M  V30 24 1 8 24
M  V30 25 1 8 25
M  V30 26 1 9 26
M  V30 27 1 9 27
M  V30 28 1 10 28
M  V30 29 1 10 29
M  V30 30 1 12 30
M  V30 31 1 12 31
M  V30 32 1 12 32
M  V30 END BOND
M  V30 END CTAB
M  END
