
     RDKit          3D

  0  0  0  0  0  0  0  0  0  0999 V3000
M  V30 BEGIN CTAB
M  V30 COUNTS 21 21 0 0 0
M  V30 BEGIN ATOM
M  V30 1 N -2.88343 -1.02702 -0.0570032 0
M  V30 2 C -1.46856 -0.933329 0.0114188 0
M  V30 3 C -0.656589 -2.03904 0.157408 0
M  V30 4 N 0.688335 -1.91448 0.219185 0
M  V30 5 C 1.27749 -0.699717 0.139462 0
M  V30 6 C 0.518875 0.438254 -0.00658889 0
M  V30 7 C -0.851696 0.308509 -0.069287 0
M  V30 8 N -1.69879 1.4355 -0.219153 0
M  V30 9 C 1.09817 1.79665 -0.10007 0
M  V30 10 C 2.78124 -0.59435 0.211662 0
M  V30 11 H -3.28088 -1.51583 -0.894007 0
M  V30 12 H -3.53892 -0.65651 0.643207 0
M  V30 13 H -1.14199 -3.01752 0.221035 0
M  V30 14 H -1.8024 2.00663 -1.08265 0
M  V30 15 H -2.26731 1.71673 0.607087 0
M  V30 16 H 1.51937 1.89406 -1.13961 0
M  V30 17 H 1.9597 1.95297 0.577811 0
M  V30 18 H 0.340512 2.5589 0.0633796 0
M  V30 19 H 3.20912 -0.404982 -0.80583 0
M  V30 20 H 3.0389 0.249273 0.884849 0
M  V30 21 H 3.15886 -1.55468 0.637698 0
M  V30 END ATOM
M  V30 BEGIN BOND
M  V30 1 1 1 2
M  V30 2 2 2 3
M  V30 3 1 3 4
M  V30 4 2 4 5
M  V30 5 1 5 6
M  V30 6 2 6 7
M  V30 7 1 7 8
M  V30 8 1 6 9
M  V30 9 1 5 10
M  V30 10 1 7 2
M  V30 11 1 1 11
M  V30 12 1 1 12
M  V30 13 1 3 13
M  V30 14 1 8 14
M  V30 15 1 8 15
M  V30 16 1 9 16
M  V30 17 1 9 17
M  V30 18 1 9 18
M  V30 19 1 10 19
M  V30 20 1 10 20
M  V30 21 1 10 21
M  V30 END BOND
M  V30 END CTAB
M  END
