
     RDKit          3D

  0  0  0  0  0  0  0  0  0  0999 V3000
M  V30 BEGIN CTAB
M  V30 COUNTS 24 25 0 0 0
M  V30 BEGIN ATOM
M  V30 1 N 4.41633 -0.611616 -0.307143 0
M  V30 2 C 4.10261 0.778509 -0.221599 0
M  V30 3 C 2.63513 0.947148 -0.163606 0
M  V30 4 O 2.03993 2.11207 -0.0807952 0
M  V30 5 N 0.776508 1.88709 -0.0508891 0
M  V30 6 C 0.504981 0.563829 -0.1134 0
M  V30 7 N 1.70982 -0.0275373 -0.185499 0
M  V30 8 C -0.787313 -0.0859792 -0.105517 0
M  V30 9 C -0.855251 -1.46054 -0.177585 0
M  V30 10 C -2.09952 -2.04171 -0.167594 0
M  V30 11 C -3.26765 -1.31921 -0.0896426 0
M  V30 12 C -3.20389 0.0758271 -0.0163248 0
M  V30 13 C -1.94812 0.652803 -0.0269254 0
M  V30 14 N -4.40064 0.839216 0.0648267 0
M  V30 15 H 3.83303 -1.12255 -1.00557 0
M  V30 16 H 5.42395 -0.824603 -0.372516 0
M  V30 17 H 4.54573 1.18169 0.719109 0
M  V30 18 H 4.5434 1.3827 -1.0451 0
M  V30 19 H 0.0680152 -2.03017 -0.239121 0
M  V30 20 H -2.16777 -3.11568 -0.223403 0
M  V30 21 H -4.25095 -1.77181 -0.0813949 0
M  V30 22 H -1.92335 1.75115 0.0316428 0
M  V30 23 H -4.4584 1.76494 -0.377228 0
M  V30 24 H -5.23657 0.47443 0.572076 0
M  V30 END ATOM
M  V30 BEGIN BOND
M  V30 1 1 1 2
M  V30 2 1 2 3
M  V30 3 1 3 4
M  V30 4 1 4 5
M  V30 5 2 5 6
M  V30 6 1 6 7
M  V30 7 1 6 8
M  V30 8 2 8 9
M  V30 9 1 9 10
M  V30 10 2 10 11
M  V30 11 1 11 12
M  V30 12 2 12 13
M  V30 13 1 12 14
M  V30 14 2 7 3
M  V30 15 1 13 8
M  V30 16 1 1 15
M  V30 17 1 1 16
M  V30 18 1 2 17
M  V30 19 1 2 18
M  V30 20 1 9 19
M  V30 21 1 10 20
M  V30 22 1 11 21
M  V30 23 1 13 22
M  V30 24 1 14 23
M  V30 25 1 14 24
M  V30 END BOND
M  V30 END CTAB
M  END
