
     RDKit          3D

  0  0  0  0  0  0  0  0  0  0999 V3000
M  V30 BEGIN CTAB
M  V30 COUNTS 36 38 0 0 0
M  V30 BEGIN ATOM
M  V30 1 N -4.53097 2.37286 -1.12973 0
M  V30 2 C -3.83024 1.17698 -0.74154 0
M  V30 3 N -2.58076 0.923399 -1.15557 0
M  V30 4 C -1.95053 -0.216906 -0.768318 0
M  V30 5 C -0.567354 -0.493927 -1.23123 0
M  V30 6 N 0.443354 0.0639979 -0.391513 0
M  V30 7 C 0.449842 -0.38519 0.96298 0
M  V30 8 C 1.25112 0.646985 1.76865 0
M  V30 9 N 2.59648 0.696543 1.18381 0
M  V30 10 C 2.79086 0.330874 -0.0806541 0
M  V30 11 C 1.72121 -0.144003 -0.993302 0
M  V30 12 C 2.01664 -1.57336 -1.34013 0
M  V30 13 C 4.13136 0.476061 -0.360475 0
M  V30 14 C 4.76884 0.943368 0.766893 0
M  V30 15 C 3.77459 1.06887 1.71242 0
M  V30 16 N -2.62678 -1.05137 0.0279029 0
M  V30 17 C -3.87071 -0.841772 0.465334 0
M  V30 18 N -4.46976 0.30699 0.0590416 0
M  V30 19 N -4.52539 -1.77596 1.31056 0
M  V30 20 H -5.45816 2.33451 -1.60876 0
M  V30 21 H -4.14073 3.32321 -0.948086 0
M  V30 22 H -0.474014 0.0167703 -2.22787 0
M  V30 23 H -0.414681 -1.57121 -1.44635 0
M  V30 24 H -0.529705 -0.500705 1.43597 0
M  V30 25 H 0.992587 -1.34559 1.10924 0
M  V30 26 H 1.27345 0.363418 2.82751 0
M  V30 27 H 0.749174 1.6204 1.60926 0
M  V30 28 H 1.72322 0.427098 -1.96639 0
M  V30 29 H 3.08552 -1.61478 -1.66384 0
M  V30 30 H 1.43458 -1.93105 -2.2305 0
M  V30 31 H 1.92411 -2.26298 -0.48965 0
M  V30 32 H 4.64979 0.268495 -1.3033 0
M  V30 33 H 5.83669 1.16594 0.882359 0
M  V30 34 H 3.96419 1.42345 2.73004 0
M  V30 35 H -5.55163 -1.90373 1.17628 0
M  V30 36 H -4.0562 -2.33767 2.04897 0
M  V30 END ATOM
M  V30 BEGIN BOND
M  V30 1 1 1 2
M  V30 2 2 2 3
M  V30 3 1 3 4
M  V30 4 1 4 5
M  V30 5 1 5 6
M  V30 6 1 6 7
M  V30 7 1 7 8
M  V30 8 1 8 9
M  V30 9 1 9 10
M  V30 10 1 10 11
M  V30 11 1 11 12
M  V30 12 2 10 13
M  V30 13 1 13 14
M  V30 14 2 14 15
M  V30 15 2 4 16
M  V30 16 1 16 17
M  V30 17 2 17 18
M  V30 18 1 17 19
M  V30 19 1 18 2
M  V30 20 1 11 6
M  V30 21 1 15 9
M  V30 22 1 1 20
M  V30 23 1 1 21
M  V30 24 1 5 22
M  V30 25 1 5 23
M  V30 26 1 7 24
M  V30 27 1 7 25
M  V30 28 1 8 26
M  V30 29 1 8 27
M  V30 30 1 11 28
M  V30 31 1 12 29
M  V30 32 1 12 30
M  V30 33 1 12 31
M  V30 34 1 13 32
M  V30 35 1 14 33
M  V30 36 1 15 34
M  V30 37 1 19 35
M  V30 38 1 19 36
M  V30 END BOND
M  V30 END CTAB
M  END
