
     RDKit          3D

  0  0  0  0  0  0  0  0  0  0999 V3000
M  V30 BEGIN CTAB
M  V30 COUNTS 44 46 0 0 0
M  V30 BEGIN ATOM
M  V30 1 C -4.06046 -3.71453 -0.447377 0
M  V30 2 O -4.24969 -2.36787 -0.203001 0
M  V30 3 C -3.2853 -1.4029 -0.0509107 0
M  V30 4 C -1.90522 -1.63184 -0.128501 0
M  V30 5 C -0.973467 -0.635116 0.0237278 0
M  V30 6 N 0.4418 -0.869272 -0.107787 0
M  V30 7 C 1.33132 0.296367 -0.0967581 0
M  V30 8 C 2.65238 -0.0971063 -0.733451 0
M  V30 9 C 2.52447 -0.523961 -2.07145 0
M  V30 10 Br 0.854868 -0.812292 -3.02462 0
M  V30 11 S 4.11065 -0.760957 -2.56181 0
M  V30 12 C 4.92185 -0.325759 -1.11781 0
M  V30 13 C 3.90907 -0.000412485 -0.257103 0
M  V30 14 C 4.3667 0.42029 1.00939 0
M  V30 15 N 3.54029 0.819752 2.07535 0
M  V30 16 N 5.69525 0.472131 1.26856 0
M  V30 17 C 6.65039 0.147661 0.40889 0
M  V30 18 N 8.04207 0.244941 0.729349 0
M  V30 19 N 6.24924 -0.26251 -0.812648 0
M  V30 20 C -1.43128 0.648919 0.266606 0
M  V30 21 C -2.79457 0.94681 0.360657 0
M  V30 22 O -3.26047 2.14705 0.580934 0
M  V30 23 C -3.37811 3.41992 0.808516 0
M  V30 24 C -3.70292 -0.115704 0.194698 0
M  V30 25 O -5.05873 0.196095 0.292282 0
M  V30 26 C -5.71637 0.663485 -0.896529 0
M  V30 27 H -3.19859 -4.14115 0.0674556 0
M  V30 28 H -3.9958 -3.93281 -1.55308 0
M  V30 29 H -4.99562 -4.26498 -0.131385 0
M  V30 30 H -1.5623 -2.61767 -0.312005 0
M  V30 31 H 0.813381 -1.81134 -0.212623 0
M  V30 32 H 0.938525 1.1425 -0.705217 0
M  V30 33 H 1.43237 0.565838 0.981612 0
M  V30 34 H 3.36667 0.0997479 2.82279 0
M  V30 35 H 3.10016 1.75263 2.21152 0
M  V30 36 H 8.35517 0.944019 1.44133 0
M  V30 37 H 8.72996 -0.355372 0.261009 0
M  V30 38 H -0.76237 1.48399 0.389309 0
M  V30 39 H -3.08766 3.69263 1.86335 0
M  V30 40 H -4.41449 3.86895 0.719896 0
M  V30 41 H -2.73357 4.10537 0.192665 0
M  V30 42 H -5.85134 -0.112391 -1.64677 0
M  V30 43 H -4.99475 1.44325 -1.29488 0
M  V30 44 H -6.6135 1.23358 -0.604194 0
M  V30 END ATOM
M  V30 BEGIN BOND
M  V30 1 1 1 2
M  V30 2 1 2 3
M  V30 3 2 3 4
M  V30 4 1 4 5
M  V30 5 1 5 6
M  V30 6 1 6 7
M  V30 7 1 7 8
M  V30 8 2 8 9
M  V30 9 1 9 10
M  V30 10 1 9 11
M  V30 11 1 11 12
M  V30 12 2 12 13
M  V30 13 1 13 14
M  V30 14 1 14 15
M  V30 15 2 14 16
M  V30 16 1 16 17
M  V30 17 1 17 18
M  V30 18 2 17 19
M  V30 19 2 5 20
M  V30 20 1 20 21
M  V30 21 1 21 22
M  V30 22 1 22 23
M  V30 23 2 21 24
M  V30 24 1 24 25
M  V30 25 1 25 26
M  V30 26 1 24 3
M  V30 27 1 13 8
M  V30 28 1 19 12
M  V30 29 1 1 27
M  V30 30 1 1 28
M  V30 31 1 1 29
M  V30 32 1 4 30
M  V30 33 1 6 31
M  V30 34 1 7 32
M  V30 35 1 7 33
M  V30 36 1 15 34
M  V30 37 1 15 35
M  V30 38 1 18 36
M  V30 39 1 18 37
M  V30 40 1 20 38
M  V30 41 1 23 39
M  V30 42 1 23 40
M  V30 43 1 23 41
M  V30 44 1 26 42
M  V30 45 1 26 43
M  V30 46 1 26 44
M  V30 END BOND
M  V30 END CTAB
M  END
