
     RDKit          3D

  0  0  0  0  0  0  0  0  0  0999 V3000
M  V30 BEGIN CTAB
M  V30 COUNTS 45 47 0 0 0
M  V30 BEGIN ATOM
M  V30 1 N 7.37579 1.69466 -0.802289 0
M  V30 2 C 7.73973 0.459411 -0.180685 0
M  V30 3 C 6.54421 -0.31817 0.217019 0
M  V30 4 N 6.46904 -1.50604 0.816847 0
M  V30 5 N 5.17933 -1.82501 0.983538 0
M  V30 6 C 4.42346 -0.845932 0.49276 0
M  V30 7 N 5.27901 0.0785963 0.0223782 0
M  V30 8 C 2.96562 -0.76167 0.456712 0
M  V30 9 C 2.17187 -1.7616 0.964898 0
M  V30 10 C 0.791432 -1.60471 0.891903 0
M  V30 11 C 0.164144 -0.531532 0.353637 0
M  V30 12 C 0.989929 0.480444 -0.161016 0
M  V30 13 C 2.35994 0.356329 -0.104791 0
M  V30 14 N -1.22496 -0.34718 0.288573 0
M  V30 15 C -2.20786 -1.07616 0.992881 0
M  V30 16 O -1.94042 -1.99475 1.78258 0
M  V30 17 C -3.65889 -0.68813 0.746306 0
M  V30 18 C -3.90592 -0.881061 -0.725482 0
M  V30 19 C -5.03775 0.0297702 -1.14308 0
M  V30 20 C -5.92292 0.24048 0.0653977 0
M  V30 21 C -5.20093 1.25134 0.964355 0
M  V30 22 C -3.8008 0.764729 1.17334 0
M  V30 23 N -5.25238 2.54803 0.317753 0
M  V30 24 H 7.57495 2.54413 -0.194908 0
M  V30 25 H 6.3228 1.72996 -0.938698 0
M  V30 26 H 8.33901 0.669354 0.73087 0
M  V30 27 H 8.31636 -0.152556 -0.905228 0
M  V30 28 H 7.30238 -2.06586 1.0957 0
M  V30 29 H 2.65269 -2.62625 1.39909 0
M  V30 30 H 0.238379 -2.43262 1.29927 0
M  V30 31 H 0.520133 1.34648 -0.594676 0
M  V30 32 H 2.9934 1.1409 -0.503792 0
M  V30 33 H -1.56105 0.424312 -0.370266 0
M  V30 34 H -4.26928 -1.33839 1.3785 0
M  V30 35 H -3.00862 -0.659119 -1.34048 0
M  V30 36 H -4.1698 -1.93787 -0.916266 0
M  V30 37 H -4.64291 0.98297 -1.51968 0
M  V30 38 H -5.62541 -0.452417 -1.96001 0
M  V30 39 H -6.06109 -0.671458 0.650019 0
M  V30 40 H -6.86944 0.725167 -0.23702 0
M  V30 41 H -5.71993 1.35383 1.93651 0
M  V30 42 H -3.54804 0.773927 2.26918 0
M  V30 43 H -3.03652 1.35869 0.676839 0
M  V30 44 H -4.31379 3.00415 0.275935 0
M  V30 45 H -5.7349 2.52083 -0.598462 0
M  V30 END ATOM
M  V30 BEGIN BOND
M  V30 1 1 1 2
M  V30 2 1 2 3
M  V30 3 1 3 4
M  V30 4 1 4 5
M  V30 5 2 5 6
M  V30 6 1 6 7
M  V30 7 1 6 8
M  V30 8 2 8 9
M  V30 9 1 9 10
M  V30 10 2 10 11
M  V30 11 1 11 12
M  V30 12 2 12 13
M  V30 13 1 11 14
M  V30 14 1 14 15
M  V30 15 2 15 16
M  V30 16 1 15 17
M  V30 17 1 17 18
M  V30 18 1 18 19
M  V30 19 1 19 20
M  V30 20 1 20 21
M  V30 21 1 21 22
M  V30 22 1 21 23
M  V30 23 2 7 3
M  V30 24 1 13 8
M  V30 25 1 22 17
M  V30 26 1 1 24
M  V30 27 1 1 25
M  V30 28 1 2 26
M  V30 29 1 2 27
M  V30 30 1 4 28
M  V30 31 1 9 29
M  V30 32 1 10 30
M  V30 33 1 12 31
M  V30 34 1 13 32
M  V30 35 1 14 33
M  V30 36 1 17 34
M  V30 37 1 18 35
M  V30 38 1 18 36
M  V30 39 1 19 37
M  V30 40 1 19 38
M  V30 41 1 20 39
M  V30 42 1 20 40
M  V30 43 1 21 41
M  V30 44 1 22 42
M  V30 45 1 22 43
M  V30 46 1 23 44
M  V30 47 1 23 45
M  V30 END BOND
M  V30 END CTAB
M  END
