
     RDKit          3D

  0  0  0  0  0  0  0  0  0  0999 V3000
M  V30 BEGIN CTAB
M  V30 COUNTS 35 36 0 0 0
M  V30 BEGIN ATOM
M  V30 1 N 3.65846 3.0879 -0.0738189 0
M  V30 2 C 3.39491 1.67909 0.0258917 0
M  V30 3 N 4.36026 0.818084 0.390792 0
M  V30 4 C 4.14508 -0.504326 0.493171 0
M  V30 5 N 5.19238 -1.40551 0.886411 0
M  V30 6 C 2.91863 -1.04398 0.227747 0
M  V30 7 N 2.68041 -2.44296 0.334341 0
M  V30 8 O 1.78361 -2.96131 0.992388 0
M  V30 9 C 1.88509 -0.160121 -0.158342 0
M  V30 10 O 0.720536 -0.655007 -0.413307 0
M  V30 11 C -0.453545 -1.15385 -0.670369 0
M  V30 12 C -1.53784 -0.584686 0.243772 0
M  V30 13 C -1.63375 0.883535 0.0564483 0
M  V30 14 C -2.87565 1.38759 -0.603055 0
M  V30 15 C -4.13349 0.66059 -0.28737 0
M  V30 16 C -3.89668 -0.432859 0.714225 0
M  V30 17 C -2.8204 -1.33395 0.0884898 0
M  V30 18 N 2.19364 1.17659 -0.237122 0
M  V30 19 H 2.86869 3.73308 0.112209 0
M  V30 20 H 4.57936 3.49195 -0.316602 0
M  V30 21 H 5.45292 -1.5251 1.86935 0
M  V30 22 H 5.67351 -1.92973 0.125691 0
M  V30 23 H -0.868059 -0.962992 -1.71766 0
M  V30 24 H -0.566819 -2.28436 -0.606293 0
M  V30 25 H -1.2132 -0.752936 1.31734 0
M  V30 26 H -1.47327 1.45515 1.01127 0
M  V30 27 H -0.785134 1.21093 -0.610717 0
M  V30 28 H -2.71646 1.50381 -1.71241 0
M  V30 29 H -3.02901 2.45249 -0.252395 0
M  V30 30 H -4.94527 1.30608 0.109056 0
M  V30 31 H -4.46562 0.154317 -1.23153 0
M  V30 32 H -3.43163 -0.0461139 1.64909 0
M  V30 33 H -4.78836 -0.99418 0.985583 0
M  V30 34 H -3.03478 -1.53569 -0.978718 0
M  V30 35 H -2.83852 -2.29152 0.639926 0
M  V30 END ATOM
M  V30 BEGIN BOND
M  V30 1 1 1 2
M  V30 2 2 2 3
M  V30 3 1 3 4
M  V30 4 1 4 5
M  V30 5 2 4 6
M  V30 6 1 6 7
M  V30 7 2 7 8
M  V30 8 1 6 9
M  V30 9 1 9 10
M  V30 10 1 10 11
M  V30 11 1 11 12
M  V30 12 1 12 13
M  V30 13 1 13 14
M  V30 14 1 14 15
M  V30 15 1 15 16
M  V30 16 1 16 17
M  V30 17 2 9 18
M  V30 18 1 18 2
M  V30 19 1 17 12
M  V30 20 1 1 19
M  V30 21 1 1 20
M  V30 22 1 5 21
M  V30 23 1 5 22
M  V30 24 1 11 23
M  V30 25 1 11 24
M  V30 26 1 12 25
M  V30 27 1 13 26
M  V30 28 1 13 27
M  V30 29 1 14 28
M  V30 30 1 14 29
M  V30 31 1 15 30
M  V30 32 1 15 31
M  V30 33 1 16 32
M  V30 34 1 16 33
M  V30 35 1 17 34
M  V30 36 1 17 35
M  V30 END BOND
M  V30 END CTAB
M  END
