
     RDKit          3D

  0  0  0  0  0  0  0  0  0  0999 V3000
M  V30 BEGIN CTAB
M  V30 COUNTS 40 42 0 0 0
M  V30 BEGIN ATOM
M  V30 1 N -5.05273 -2.23948 -0.602637 0
M  V30 2 C -4.58903 -1.02596 -0.0349045 0
M  V30 3 N -3.46317 -1.01376 0.736502 0
M  V30 4 C -2.98885 0.0934748 1.28726 0
M  V30 5 C -1.76808 0.0712324 2.11639 0
M  V30 6 S -0.286862 0.377417 1.12942 0
M  V30 7 C 0.00923777 -1.0169 0.018413 0
M  V30 8 N -0.698446 -2.13599 -0.100139 0
M  V30 9 C -0.144609 -2.91197 -1.03656 0
M  V30 10 C 0.936583 -2.24405 -1.50458 0
M  V30 11 N 1.03139 -1.07711 -0.855226 0
M  V30 12 C 2.04476 -0.0903522 -1.07278 0
M  V30 13 C 2.08167 0.581844 -2.24747 0
M  V30 14 C 3.0465 1.56372 -2.51792 0
M  V30 15 C 3.9639 1.8305 -1.55178 0
M  V30 16 C 3.9422 1.14995 -0.33803 0
M  V30 17 C 2.97163 0.176137 -0.0915323 0
M  V30 18 C 3.00163 -0.506587 1.20655 0
M  V30 19 C 4.98314 1.51336 0.650384 0
M  V30 20 N -3.63068 1.257 1.08747 0
M  V30 21 C -4.74485 1.2909 0.333467 0
M  V30 22 N -5.20716 0.154086 -0.215281 0
M  V30 23 N -5.42719 2.54461 0.125143 0
M  V30 24 H -5.25677 -3.04999 0.00344424 0
M  V30 25 H -5.17847 -2.28384 -1.64035 0
M  V30 26 H -1.69559 -0.94544 2.60051 0
M  V30 27 H -1.83965 0.776038 2.97185 0
M  V30 28 H -0.475295 -3.90254 -1.38279 0
M  V30 29 H 1.60697 -2.62747 -2.2915 0
M  V30 30 H 1.36594 0.392039 -3.03619 0
M  V30 31 H 3.03366 2.07264 -3.47131 0
M  V30 32 H 4.71846 2.58427 -1.73743 0
M  V30 33 H 4.05781 -0.874871 1.35805 0
M  V30 34 H 2.79861 0.234368 1.99704 0
M  V30 35 H 2.37093 -1.41117 1.24287 0
M  V30 36 H 5.22852 2.60818 0.534614 0
M  V30 37 H 5.88173 0.899153 0.412701 0
M  V30 38 H 4.69526 1.27445 1.68856 0
M  V30 39 H -6.40468 2.50205 -0.231936 0
M  V30 40 H -4.91842 3.41006 0.338311 0
M  V30 END ATOM
M  V30 BEGIN BOND
M  V30 1 1 1 2
M  V30 2 2 2 3
M  V30 3 1 3 4
M  V30 4 1 4 5
M  V30 5 1 5 6
M  V30 6 1 6 7
M  V30 7 2 7 8
M  V30 8 1 8 9
M  V30 9 2 9 10
M  V30 10 1 10 11
M  V30 11 1 11 12
M  V30 12 2 12 13
M  V30 13 1 13 14
M  V30 14 2 14 15
M  V30 15 1 15 16
M  V30 16 2 16 17
M  V30 17 1 17 18
M  V30 18 1 16 19
M  V30 19 2 4 20
M  V30 20 1 20 21
M  V30 21 2 21 22
M  V30 22 1 21 23
M  V30 23 1 22 2
M  V30 24 1 11 7
M  V30 25 1 17 12
M  V30 26 1 1 24
M  V30 27 1 1 25
M  V30 28 1 5 26
M  V30 29 1 5 27
M  V30 30 1 9 28
M  V30 31 1 10 29
M  V30 32 1 13 30
M  V30 33 1 14 31
M  V30 34 1 15 32
M  V30 35 1 18 33
M  V30 36 1 18 34
M  V30 37 1 18 35
M  V30 38 1 19 36
M  V30 39 1 19 37
M  V30 40 1 19 38
M  V30 41 1 23 39
M  V30 42 1 23 40
M  V30 END BOND
M  V30 END CTAB
M  END
