
     RDKit          3D

  0  0  0  0  0  0  0  0  0  0999 V3000
M  V30 BEGIN CTAB
M  V30 COUNTS 24 25 0 0 0
M  V30 BEGIN ATOM
M  V30 1 N 3.40899 -0.144308 0.312877 0
M  V30 2 C 2.10048 -0.687098 0.182416 0
M  V30 3 C 1.81912 -2.02199 0.133253 0
M  V30 4 N 0.557041 -2.43096 0.00940317 0
M  V30 5 C -0.479408 -1.5446 -0.0711288 0
M  V30 6 C -0.272402 -0.173731 -0.0282227 0
M  V30 7 C 1.03395 0.232488 0.0996785 0
M  V30 8 N 1.32009 1.6053 0.149949 0
M  V30 9 C -1.29562 0.75145 -0.106855 0
M  V30 10 C -1.10611 2.20268 -0.064186 0
M  V30 11 C -2.57818 0.186201 -0.235308 0
M  V30 12 C -2.81919 -1.15136 -0.280784 0
M  V30 13 C -1.76706 -2.01817 -0.198466 0
M  V30 14 Cl -2.03076 -3.74829 -0.252845 0
M  V30 15 F -3.63642 1.02673 -0.318647 0
M  V30 16 H 4.11194 -0.727411 0.843462 0
M  V30 17 H 3.66053 0.78758 -0.0977051 0
M  V30 18 H 2.6433 -2.73514 0.197152 0
M  V30 19 H 1.35325 2.09886 1.05527 0
M  V30 20 H 1.51683 2.11448 -0.726394 0
M  V30 21 H -0.861966 2.65579 0.903986 0
M  V30 22 H -0.690625 2.67394 -0.970747 0
M  V30 23 H -2.17805 2.62345 -0.156374 0
M  V30 24 H -3.80973 -1.57589 -0.379782 0
M  V30 END ATOM
M  V30 BEGIN BOND
M  V30 1 1 1 2
M  V30 2 2 2 3
M  V30 3 1 3 4
M  V30 4 2 4 5
M  V30 5 1 5 6
M  V30 6 2 6 7
M  V30 7 1 7 8
M  V30 8 1 6 9
M  V30 9 1 9 10
M  V30 10 2 9 11
M  V30 11 1 11 12
M  V30 12 2 12 13
M  V30 13 1 13 14
M  V30 14 1 11 15
M  V30 15 1 7 2
M  V30 16 1 13 5
M  V30 17 1 1 16
M  V30 18 1 1 17
M  V30 19 1 3 18
M  V30 20 1 8 19
M  V30 21 1 8 20
M  V30 22 1 10 21
M  V30 23 1 10 22
M  V30 24 1 10 23
M  V30 25 1 12 24
M  V30 END BOND
M  V30 END CTAB
M  END
