
     RDKit          3D

  0  0  0  0  0  0  0  0  0  0999 V3000
M  V30 BEGIN CTAB
M  V30 COUNTS 28 28 0 0 0
M  V30 BEGIN ATOM
M  V30 1 O 3.51329 1.39847 -0.608902 0
M  V30 2 C 3.13797 0.194891 -0.0586878 0
M  V30 3 C 1.65945 0.279204 0.271872 0
M  V30 4 C 1.16075 -0.994328 0.878971 0
M  V30 5 C -0.297031 -0.843056 1.22208 0
M  V30 6 N -1.07158 -0.246397 0.177368 0
M  V30 7 C -0.559092 0.589139 -0.866978 0
M  V30 8 C 0.932254 0.480963 -1.0443 0
M  V30 9 C -2.47018 -0.503834 0.173954 0
M  V30 10 N -3.34637 0.38507 0.386652 0
M  V30 11 N -3.15266 1.71368 0.651612 0
M  V30 12 N -2.87493 -1.83957 -0.0850464 0
M  V30 13 H 4.47229 1.48408 -0.807742 0
M  V30 14 H 3.24662 -0.589759 -0.832882 0
M  V30 15 H 3.74891 -0.0927331 0.826853 0
M  V30 16 H 1.43716 1.10452 0.974756 0
M  V30 17 H 1.72499 -1.14761 1.83973 0
M  V30 18 H 1.34425 -1.86387 0.242615 0
M  V30 19 H -0.691713 -1.88009 1.39461 0
M  V30 20 H -0.377752 -0.307275 2.18691 0
M  V30 21 H -0.782355 1.67391 -0.687915 0
M  V30 22 H -1.07598 0.311802 -1.80876 0
M  V30 23 H 1.36197 1.39278 -1.50243 0
M  V30 24 H 1.18246 -0.415443 -1.67765 0
M  V30 25 H -3.1512 2.07131 1.62338 0
M  V30 26 H -3.00364 2.38526 -0.122302 0
M  V30 27 H -3.75267 -2.23902 0.307681 0
M  V30 28 H -2.31523 -2.5021 -0.68604 0
M  V30 END ATOM
M  V30 BEGIN BOND
M  V30 1 1 1 2
M  V30 2 1 2 3
M  V30 3 1 3 4
M  V30 4 1 4 5
M  V30 5 1 5 6
M  V30 6 1 6 7
M  V30 7 1 7 8
M  V30 8 1 6 9
M  V30 9 2 9 10 CFG=2
M  V30 10 1 10 11
M  V30 11 1 9 12
M  V30 12 1 8 3
M  V30 13 1 1 13
M  V30 14 1 2 14
M  V30 15 1 2 15
M  V30 16 1 3 16
M  V30 17 1 4 17
M  V30 18 1 4 18
M  V30 19 1 5 19
M  V30 20 1 5 20
M  V30 21 1 7 21
M  V30 22 1 7 22
M  V30 23 1 8 23
M  V30 24 1 8 24
M  V30 25 1 11 25
M  V30 26 1 11 26
M  V30 27 1 12 27
M  V30 28 1 12 28
M  V30 END BOND
M  V30 END CTAB
M  END
