
     RDKit          3D

  0  0  0  0  0  0  0  0  0  0999 V3000
M  V30 BEGIN CTAB
M  V30 COUNTS 29 29 0 0 0
M  V30 BEGIN ATOM
M  V30 1 N -3.61945 1.16234 0.894694 0
M  V30 2 C -2.56955 0.684995 0.0630609 0 CFG=2
M  V30 3 C -2.94739 -0.651435 -0.453759 0
M  V30 4 C -1.8262 -1.51561 -0.918873 0
M  V30 5 C -0.460859 -0.955039 -0.80563 0
M  V30 6 N -0.248241 -0.0495595 0.293319 0
M  V30 7 C -1.32946 0.607706 0.891623 0
M  V30 8 O -1.21609 1.07852 2.03832 0
M  V30 9 P 1.40784 0.18063 0.820005 0 CFG=1
M  V30 10 N 1.56265 1.60672 1.81549 0
M  V30 11 O 1.74511 -1.04307 1.68695 0
M  V30 12 N 2.41795 0.253606 -0.586071 0
M  V30 13 S 3.84874 -0.658051 -0.473858 0
M  V30 14 O 5.18588 0.296023 -0.0603089 0
M  V30 15 O 4.17494 -1.3587 -1.78555 0
M  V30 16 O 3.74809 -1.72564 0.600681 0
M  V30 17 H -3.87009 2.11995 0.87899 0
M  V30 18 H -4.3387 0.481965 1.0792 0
M  V30 19 H -2.42917 1.4141 -0.758696 0
M  V30 20 H -3.55671 -1.17807 0.340198 0
M  V30 21 H -3.67777 -0.499795 -1.29737 0
M  V30 22 H -1.88849 -2.49696 -0.40677 0
M  V30 23 H -1.97687 -1.77008 -2.00841 0
M  V30 24 H -0.163967 -0.448969 -1.76271 0
M  V30 25 H 0.254506 -1.78754 -0.689963 0
M  V30 26 H 1.09118 2.4274 1.39346 0
M  V30 27 H 2.55278 1.86193 1.94678 0
M  V30 28 H 2.59743 1.2528 -0.881908 0
M  V30 29 H 5.53191 0.709824 -0.900009 0
M  V30 END ATOM
M  V30 BEGIN BOND
M  V30 1 1 1 2
M  V30 2 1 2 3
M  V30 3 1 3 4
M  V30 4 1 4 5
M  V30 5 1 5 6
M  V30 6 1 6 7
M  V30 7 2 7 8
M  V30 8 1 6 9
M  V30 9 1 9 10 CFG=1
M  V30 10 2 9 11
M  V30 11 1 9 12
M  V30 12 1 12 13
M  V30 13 1 13 14
M  V30 14 2 13 15
M  V30 15 2 13 16
M  V30 16 1 7 2
M  V30 17 1 1 17
M  V30 18 1 1 18
M  V30 19 1 2 19 CFG=3
M  V30 20 1 3 20
M  V30 21 1 3 21
M  V30 22 1 4 22
M  V30 23 1 4 23
M  V30 24 1 5 24
M  V30 25 1 5 25
M  V30 26 1 10 26
M  V30 27 1 10 27
M  V30 28 1 12 28
M  V30 29 1 14 29
M  V30 END BOND
M  V30 END CTAB
M  END
