
     RDKit          3D

  0  0  0  0  0  0  0  0  0  0999 V3000
M  V30 BEGIN CTAB
M  V30 COUNTS 38 40 0 0 0
M  V30 BEGIN ATOM
M  V30 1 O -2.14399 -1.36131 -2.76895 0
M  V30 2 C -1.66048 -0.524298 -2.00547 0
M  V30 3 C -0.423303 0.315003 -2.19484 0
M  V30 4 N 0.0691975 0.258652 -0.805074 0
M  V30 5 C -1.11996 0.340484 -0.00840517 0
M  V30 6 C -2.16794 -0.124278 -0.701407 0
M  V30 7 C -3.54633 -0.22842 -0.262714 0
M  V30 8 C -4.11128 0.786518 0.479336 0
M  V30 9 C -5.42574 0.622457 0.868609 0
M  V30 10 C -6.18175 -0.482094 0.55762 0
M  V30 11 C -5.60773 -1.49744 -0.187424 0
M  V30 12 C -4.29302 -1.34636 -0.583971 0
M  V30 13 N -1.21393 0.840888 1.31862 0
M  V30 14 C 1.421 0.133768 -0.398229 0
M  V30 15 C 2.40851 0.0916578 -1.364 0
M  V30 16 C 3.76604 -0.0514906 -1.03895 0
M  V30 17 C 4.15776 -0.156011 0.266226 0
M  V30 18 C 3.17986 -0.113416 1.23074 0
M  V30 19 C 1.82372 0.02981 0.898596 0
M  V30 20 S 5.85555 -0.337456 0.687692 0
M  V30 21 O 6.0214 -1.18327 1.92325 0
M  V30 22 O 6.61692 -1.05124 -0.405275 0
M  V30 23 N 6.62003 1.1706 0.948176 0
M  V30 24 H 0.254013 -0.108406 -2.92017 0
M  V30 25 H -0.752058 1.35003 -2.36383 0
M  V30 26 H -3.57428 1.69543 0.760037 0
M  V30 27 H -5.88483 1.40661 1.44512 0
M  V30 28 H -7.21532 -0.617827 0.859861 0
M  V30 29 H -6.16194 -2.39657 -0.463928 0
M  V30 30 H -3.87641 -2.16291 -1.17018 0
M  V30 31 H -1.20092 1.85288 1.54838 0
M  V30 32 H -1.30263 0.176342 2.11952 0
M  V30 33 H 2.15269 0.170793 -2.40624 0
M  V30 34 H 4.50103 -0.0822183 -1.83489 0
M  V30 35 H 3.49876 -0.194805 2.2614 0
M  V30 36 H 1.11495 0.0516703 1.69511 0
M  V30 37 H 7.2844 1.16871 1.7608 0
M  V30 38 H 7.11805 1.55753 0.135872 0
M  V30 END ATOM
M  V30 BEGIN BOND
M  V30 1 2 1 2
M  V30 2 1 2 3
M  V30 3 1 3 4
M  V30 4 1 4 5
M  V30 5 2 5 6
M  V30 6 1 6 7
M  V30 7 2 7 8
M  V30 8 1 8 9
M  V30 9 2 9 10
M  V30 10 1 10 11
M  V30 11 2 11 12
M  V30 12 1 5 13
M  V30 13 1 4 14
M  V30 14 2 14 15
M  V30 15 1 15 16
M  V30 16 2 16 17
M  V30 17 1 17 18
M  V30 18 2 18 19
M  V30 19 1 17 20
M  V30 20 2 20 21
M  V30 21 2 20 22
M  V30 22 1 20 23
M  V30 23 1 6 2
M  V30 24 1 12 7
M  V30 25 1 19 14
M  V30 26 1 3 24
M  V30 27 1 3 25
M  V30 28 1 8 26
M  V30 29 1 9 27
M  V30 30 1 10 28
M  V30 31 1 11 29
M  V30 32 1 12 30
M  V30 33 1 13 31
M  V30 34 1 13 32
M  V30 35 1 15 33
M  V30 36 1 16 34
M  V30 37 1 18 35
M  V30 38 1 19 36
M  V30 39 1 23 37
M  V30 40 1 23 38
M  V30 END BOND
M  V30 END CTAB
M  END
