
     RDKit          3D

  0  0  0  0  0  0  0  0  0  0999 V3000
M  V30 BEGIN CTAB
M  V30 COUNTS 38 38 0 0 0
M  V30 BEGIN ATOM
M  V30 1 N -3.74126 -1.24967 0.302804 0
M  V30 2 C -2.88631 -0.574222 -0.652659 0
M  V30 3 C -2.25126 0.657623 -0.0802879 0
M  V30 4 C -1.36868 0.474806 1.08447 0
M  V30 5 N -0.187441 -0.388864 0.850385 0
M  V30 6 C 0.978964 0.243571 0.423288 0
M  V30 7 O 0.938953 1.55347 0.325492 0
M  V30 8 C 2.27325 -0.278179 0.0522468 0
M  V30 9 C 2.63577 -1.59466 -0.0528349 0
M  V30 10 C 3.91804 -2.01589 -0.452258 0
M  V30 11 C 4.87627 -1.10539 -0.759587 0
M  V30 12 C 4.55421 0.215716 -0.668001 0
M  V30 13 C 3.31207 0.615822 -0.280607 0
M  V30 14 N 3.06186 2.022 -0.209018 0
M  V30 15 C -0.270844 -1.78088 1.12092 0
M  V30 16 C -1.67212 1.42828 -1.24498 0
M  V30 17 C -3.45888 1.51273 0.385225 0
M  V30 18 H -4.74366 -1.12234 0.132566 0
M  V30 19 H -3.50345 -1.0403 1.29086 0
M  V30 20 H -2.14505 -1.32954 -0.984766 0
M  V30 21 H -3.49021 -0.342543 -1.55878 0
M  V30 22 H -1.00826 1.4925 1.41036 0
M  V30 23 H -1.94548 0.097352 1.95394 0
M  V30 24 H 1.97019 -2.38863 0.143315 0
M  V30 25 H 4.1504 -3.07956 -0.517505 0
M  V30 26 H 5.85451 -1.46196 -1.0642 0
M  V30 27 H 5.30907 0.959937 -0.910607 0
M  V30 28 H 2.76835 2.46472 -1.12461 0
M  V30 29 H 3.15503 2.57969 0.659922 0
M  V30 30 H 0.557846 -2.03792 1.81512 0
M  V30 31 H -0.308671 -2.34863 0.180877 0
M  V30 32 H -1.23068 -2.06467 1.6407 0
M  V30 33 H -2.53271 1.50213 -1.98296 0
M  V30 34 H -1.43063 2.47235 -1.02343 0
M  V30 35 H -0.888183 0.888084 -1.79564 0
M  V30 36 H -4.20399 0.81868 0.825583 0
M  V30 37 H -3.12148 2.17635 1.2132 0
M  V30 38 H -3.92551 2.02803 -0.448547 0
M  V30 END ATOM
M  V30 BEGIN BOND
M  V30 1 1 1 2
M  V30 2 1 2 3
M  V30 3 1 3 4
M  V30 4 1 4 5
M  V30 5 1 5 6
M  V30 6 2 6 7
M  V30 7 1 6 8
M  V30 8 2 8 9
M  V30 9 1 9 10
M  V30 10 2 10 11
M  V30 11 1 11 12
M  V30 12 2 12 13
M  V30 13 1 13 14
M  V30 14 1 5 15
M  V30 15 1 3 16
M  V30 16 1 3 17
M  V30 17 1 13 8
M  V30 18 1 1 18
M  V30 19 1 1 19
M  V30 20 1 2 20
M  V30 21 1 2 21
M  V30 22 1 4 22
M  V30 23 1 4 23
M  V30 24 1 9 24
M  V30 25 1 10 25
M  V30 26 1 11 26
M  V30 27 1 12 27
M  V30 28 1 14 28
M  V30 29 1 14 29
M  V30 30 1 15 30
M  V30 31 1 15 31
M  V30 32 1 15 32
M  V30 33 1 16 33
M  V30 34 1 16 34
M  V30 35 1 16 35
M  V30 36 1 17 36
M  V30 37 1 17 37
M  V30 38 1 17 38
M  V30 END BOND
M  V30 END CTAB
M  END
