
     RDKit          3D

  0  0  0  0  0  0  0  0  0  0999 V3000
M  V30 BEGIN CTAB
M  V30 COUNTS 33 34 0 0 0
M  V30 BEGIN ATOM
M  V30 1 N -2.68995 -1.88036 1.30497 0
M  V30 2 C -2.02973 -1.28618 0.203549 0 CFG=1
M  V30 3 C -3.02678 -1.02005 -0.896802 0
M  V30 4 C -2.73139 0.373515 -1.33864 0
M  V30 5 O -3.10678 0.854451 -2.42817 0
M  V30 6 N -1.98274 1.01887 -0.342098 0
M  V30 7 C -1.41832 0.0375322 0.57864 0 CFG=2
M  V30 8 C 0.0650713 0.00626734 0.507233 0
M  V30 9 C 0.819915 -0.0229927 1.66348 0
M  V30 10 C 2.19716 -0.0526951 1.65716 0
M  V30 11 C 2.83609 -0.0527576 0.428738 0
M  V30 12 C 2.09237 -0.0236432 -0.735842 0
M  V30 13 C 0.701411 0.00624179 -0.719308 0
M  V30 14 N 2.80879 -0.0254339 -1.95996 0
M  V30 15 C 4.30892 -0.0840234 0.37763 0
M  V30 16 C -1.76008 2.43923 -0.187501 0
M  V30 17 H -3.08275 -1.22637 1.92052 0
M  V30 18 H -2.4077 -2.78617 1.56439 0
M  V30 19 H -1.2222 -1.94935 -0.186644 0
M  V30 20 H -2.91198 -1.69366 -1.76424 0
M  V30 21 H -4.07768 -1.07778 -0.55666 0
M  V30 22 H -1.71861 0.340464 1.59386 0
M  V30 23 H 0.302526 -0.0225072 2.61951 0
M  V30 24 H 2.77155 -0.0753427 2.57166 0
M  V30 25 H 0.179419 0.0279932 -1.65403 0
M  V30 26 H 3.32513 0.81425 -2.29837 0
M  V30 27 H 2.84247 -0.88824 -2.5754 0
M  V30 28 H 4.69915 0.516824 -0.478437 0
M  V30 29 H 4.71251 0.32077 1.34255 0
M  V30 30 H 4.70858 -1.1072 0.245384 0
M  V30 31 H -2.71446 3.01997 -0.328286 0
M  V30 32 H -1.07248 2.79743 -0.966101 0
M  V30 33 H -1.41746 2.70094 0.837212 0
M  V30 END ATOM
M  V30 BEGIN BOND
M  V30 1 1 1 2
M  V30 2 1 2 3
M  V30 3 1 3 4
M  V30 4 2 4 5
M  V30 5 1 4 6
M  V30 6 1 6 7
M  V30 7 1 7 8
M  V30 8 2 8 9
M  V30 9 1 9 10
M  V30 10 2 10 11
M  V30 11 1 11 12
M  V30 12 2 12 13
M  V30 13 1 12 14
M  V30 14 1 11 15
M  V30 15 1 6 16
M  V30 16 1 7 2
M  V30 17 1 13 8
M  V30 18 1 1 17
M  V30 19 1 1 18
M  V30 20 1 2 19 CFG=3
M  V30 21 1 3 20
M  V30 22 1 3 21
M  V30 23 1 7 22 CFG=1
M  V30 24 1 9 23
M  V30 25 1 10 24
M  V30 26 1 13 25
M  V30 27 1 14 26
M  V30 28 1 14 27
M  V30 29 1 15 28
M  V30 30 1 15 29
M  V30 31 1 15 30
M  V30 32 1 16 31
M  V30 33 1 16 32
M  V30 34 1 16 33
M  V30 END BOND
M  V30 END CTAB
M  END
