
     RDKit          3D

  0  0  0  0  0  0  0  0  0  0999 V3000
M  V30 BEGIN CTAB
M  V30 COUNTS 19 19 0 0 0
M  V30 BEGIN ATOM
M  V30 1 N 3.36309 0.345673 0.866749 0
M  V30 2 C 1.98356 0.15315 0.587289 0
M  V30 3 C 1.47063 -0.922477 -0.144061 0
M  V30 4 C 0.108289 -0.731935 -0.182184 0
M  V30 5 N -0.183161 0.381702 0.480113 0
M  V30 6 N 0.938077 0.895277 0.930421 0
M  V30 7 S -1.80003 0.980158 0.667499 0
M  V30 8 O -1.80935 2.29414 1.39033 0
M  V30 9 O -2.67634 0.0149789 1.36797 0
M  V30 10 N -2.38345 1.3035 -0.947369 0
M  V30 11 C -0.80541 -1.67878 -0.879344 0
M  V30 12 H 3.65121 0.570351 1.83119 0
M  V30 13 H 4.06497 0.26221 0.117873 0
M  V30 14 H 2.06765 -1.69809 -0.559856 0
M  V30 15 H -3.24029 1.90236 -0.860825 0
M  V30 16 H -1.66995 1.77728 -1.512 0
M  V30 17 H -0.450156 -1.84985 -1.91012 0
M  V30 18 H -1.83809 -1.34448 -0.916177 0
M  V30 19 H -0.791248 -2.65516 -0.327486 0
M  V30 END ATOM
M  V30 BEGIN BOND
M  V30 1 1 1 2
M  V30 2 1 2 3
M  V30 3 2 3 4
M  V30 4 1 4 5
M  V30 5 1 5 6
M  V30 6 1 5 7
M  V30 7 2 7 8
M  V30 8 2 7 9
M  V30 9 1 7 10
M  V30 10 1 4 11
M  V30 11 2 6 2
M  V30 12 1 1 12
M  V30 13 1 1 13
M  V30 14 1 3 14
M  V30 15 1 10 15
M  V30 16 1 10 16
M  V30 17 1 11 17
M  V30 18 1 11 18
M  V30 19 1 11 19
M  V30 END BOND
M  V30 END CTAB
M  END
