
     RDKit          3D

  0  0  0  0  0  0  0  0  0  0999 V3000
M  V30 BEGIN CTAB
M  V30 COUNTS 27 27 0 0 0
M  V30 BEGIN ATOM
M  V30 1 C 3.42696 1.46111 0.0305468 0
M  V30 2 C 2.31452 0.472126 0.231408 0
M  V30 3 C 1.33823 0.375281 -0.707452 0
M  V30 4 C 0.312295 -0.565318 -0.481372 0
M  V30 5 C -0.78845 -0.625622 -1.43258 0
M  V30 6 C -1.89923 0.350048 -1.30342 0
M  V30 7 C -2.66274 0.429699 -0.0330925 0
M  V30 8 N -1.92378 0.854167 1.10684 0
M  V30 9 C 0.322309 -1.34481 0.65014 0
M  V30 10 N 1.32244 -1.20704 1.55824 0
M  V30 11 C 2.30696 -0.318788 1.36654 0
M  V30 12 N -0.67333 -2.3721 0.878685 0
M  V30 13 H 4.25863 1.2573 0.7385 0
M  V30 14 H 3.08451 2.50952 0.205951 0
M  V30 15 H 3.80514 1.33836 -0.998649 0
M  V30 16 H 1.30329 0.978223 -1.62217 0
M  V30 17 H -0.432482 -0.577864 -2.50397 0
M  V30 18 H -1.25777 -1.65568 -1.36296 0
M  V30 19 H -1.50244 1.40634 -1.49741 0
M  V30 20 H -2.66174 0.190327 -2.14676 0
M  V30 21 H -3.45981 1.21272 -0.201663 0
M  V30 22 H -3.24887 -0.516919 0.161674 0
M  V30 23 H -2.27378 1.78575 1.44504 0
M  V30 24 H -2.07971 0.199015 1.93468 0
M  V30 25 H 3.11867 -0.171865 2.06368 0
M  V30 26 H -1.35727 -2.21951 1.62771 0
M  V30 27 H -0.692541 -3.24446 0.291866 0
M  V30 END ATOM
M  V30 BEGIN BOND
M  V30 1 1 1 2
M  V30 2 2 2 3
M  V30 3 1 3 4
M  V30 4 1 4 5
M  V30 5 1 5 6
M  V30 6 1 6 7
M  V30 7 1 7 8
M  V30 8 2 4 9
M  V30 9 1 9 10
M  V30 10 2 10 11
M  V30 11 1 9 12
M  V30 12 1 11 2
M  V30 13 1 1 13
M  V30 14 1 1 14
M  V30 15 1 1 15
M  V30 16 1 3 16
M  V30 17 1 5 17
M  V30 18 1 5 18
M  V30 19 1 6 19
M  V30 20 1 6 20
M  V30 21 1 7 21
M  V30 22 1 7 22
M  V30 23 1 8 23
M  V30 24 1 8 24
M  V30 25 1 11 25
M  V30 26 1 12 26
M  V30 27 1 12 27
M  V30 END BOND
M  V30 END CTAB
M  END
