
     RDKit          3D

  0  0  0  0  0  0  0  0  0  0999 V3000
M  V30 BEGIN CTAB
M  V30 COUNTS 46 48 0 0 0
M  V30 BEGIN ATOM
M  V30 1 C 5.46174 1.25441 0.392517 0
M  V30 2 C 5.83292 0.259489 1.46925 0
M  V30 3 C 5.38082 -1.13569 1.14709 0
M  V30 4 C 3.88211 -1.25284 0.977857 0
M  V30 5 O 3.45985 -0.420905 -0.0704183 0
M  V30 6 C 2.08417 -0.383188 -0.393877 0
M  V30 7 C 1.18154 -1.15222 0.312125 0
M  V30 8 C -0.190164 -1.12769 0.00472441 0
M  V30 9 C -0.626168 -0.32339 -1.01438 0
M  V30 10 C 0.261906 0.434257 -1.71017 0
M  V30 11 C 1.62956 0.415845 -1.41067 0
M  V30 12 C -2.05686 -0.295106 -1.34511 0
M  V30 13 C -2.65023 -1.63158 -1.40967 0
M  V30 14 C -3.7707 -1.91647 -0.809916 0
M  V30 15 N -4.23672 -3.28118 -0.961549 0
M  V30 16 O -4.5275 -1.02676 -0.0571589 0
M  V30 17 C -4.00065 0.273051 0.0346961 0
M  V30 18 C -2.83737 0.646148 -0.56381 0
M  V30 19 C -2.39607 1.9819 -0.408564 0
M  V30 20 C -3.13403 2.87224 0.332206 0
M  V30 21 C -4.31432 2.51632 0.946934 0
M  V30 22 C -4.73153 1.21889 0.788904 0
M  V30 23 N -5.0508 3.45534 1.70245 0
M  V30 24 C -1.96388 -2.69188 -2.17513 0
M  V30 25 N -1.40903 -3.50831 -2.78096 0
M  V30 26 H 6.20269 2.10535 0.396502 0
M  V30 27 H 4.4831 1.72584 0.570025 0
M  V30 28 H 5.561 0.756222 -0.585164 0
M  V30 29 H 5.42784 0.606752 2.46137 0
M  V30 30 H 6.92179 0.251226 1.57948 0
M  V30 31 H 5.8842 -1.47292 0.235815 0
M  V30 32 H 5.64031 -1.76871 2.03249 0
M  V30 33 H 3.6719 -2.32724 0.784619 0
M  V30 34 H 3.36964 -0.900525 1.89958 0
M  V30 35 H 1.53987 -1.78569 1.11783 0
M  V30 36 H -0.817094 -1.76442 0.613775 0
M  V30 37 H -0.0442263 1.09268 -2.53412 0
M  V30 38 H 2.3258 1.00921 -1.95544 0
M  V30 39 H -2.09848 0.10318 -2.42757 0
M  V30 40 H -5.22803 -3.44473 -1.18375 0
M  V30 41 H -3.58432 -4.06892 -0.84811 0
M  V30 42 H -1.46127 2.27364 -0.894126 0
M  V30 43 H -2.74496 3.88374 0.415954 0
M  V30 44 H -5.65518 0.877478 1.24979 0
M  V30 45 H -6.07258 3.63078 1.56181 0
M  V30 46 H -4.60062 4.03639 2.45869 0
M  V30 END ATOM
M  V30 BEGIN BOND
M  V30 1 1 1 2
M  V30 2 1 2 3
M  V30 3 1 3 4
M  V30 4 1 4 5
M  V30 5 1 5 6
M  V30 6 2 6 7
M  V30 7 1 7 8
M  V30 8 2 8 9
M  V30 9 1 9 10
M  V30 10 2 10 11
M  V30 11 1 9 12
M  V30 12 1 12 13
M  V30 13 2 13 14
M  V30 14 1 14 15
M  V30 15 1 14 16
M  V30 16 1 16 17
M  V30 17 2 17 18
M  V30 18 1 18 19
M  V30 19 2 19 20
M  V30 20 1 20 21
M  V30 21 2 21 22
M  V30 22 1 21 23
M  V30 23 1 13 24
M  V30 24 3 24 25
M  V30 25 1 11 6
M  V30 26 1 18 12
M  V30 27 1 22 17
M  V30 28 1 1 26
M  V30 29 1 1 27
M  V30 30 1 1 28
M  V30 31 1 2 29
M  V30 32 1 2 30
M  V30 33 1 3 31
M  V30 34 1 3 32
M  V30 35 1 4 33
M  V30 36 1 4 34
M  V30 37 1 7 35
M  V30 38 1 8 36
M  V30 39 1 10 37
M  V30 40 1 11 38
M  V30 41 1 12 39
M  V30 42 1 15 40
M  V30 43 1 15 41
M  V30 44 1 19 42
M  V30 45 1 20 43
M  V30 46 1 22 44
M  V30 47 1 23 45
M  V30 48 1 23 46
M  V30 END BOND
M  V30 END CTAB
M  END
