
     RDKit          3D

  0  0  0  0  0  0  0  0  0  0999 V3000
M  V30 BEGIN CTAB
M  V30 COUNTS 20 20 0 0 0
M  V30 BEGIN ATOM
M  V30 1 N 3.33991 1.33551 -0.255473 0
M  V30 2 N 2.70222 0.623428 0.746259 0
M  V30 3 C 1.5522 -0.195384 0.504674 0
M  V30 4 N 1.57874 -1.53563 0.692333 0
M  V30 5 C 0.480553 -2.27716 0.456646 0
M  V30 6 C -0.679929 -1.64995 0.0161857 0
M  V30 7 C -0.743702 -0.272436 -0.189436 0
M  V30 8 C 0.408016 0.435018 0.0691438 0
M  V30 9 S -2.20492 0.49893 -0.749675 0
M  V30 10 O -3.05903 -0.500866 -1.52673 0
M  V30 11 O -1.87323 1.6508 -1.65734 0
M  V30 12 N -3.18976 1.01626 0.574311 0
M  V30 13 H 4.19871 0.841306 -0.546831 0
M  V30 14 H 2.70998 1.49444 -1.07143 0
M  V30 15 H 3.09038 0.686388 1.73321 0
M  V30 16 H 0.505094 -3.35468 0.613618 0
M  V30 17 H -1.58476 -2.20866 -0.182144 0
M  V30 18 H 0.378372 1.50687 -0.0849618 0
M  V30 19 H -3.74383 0.169326 0.899283 0
M  V30 20 H -3.86502 1.73649 0.170078 0
M  V30 END ATOM
M  V30 BEGIN BOND
M  V30 1 1 1 2
M  V30 2 1 2 3
M  V30 3 2 3 4
M  V30 4 1 4 5
M  V30 5 2 5 6
M  V30 6 1 6 7
M  V30 7 2 7 8
M  V30 8 1 7 9
M  V30 9 2 9 10
M  V30 10 2 9 11
M  V30 11 1 9 12
M  V30 12 1 8 3
M  V30 13 1 1 13
M  V30 14 1 1 14
M  V30 15 1 2 15
M  V30 16 1 5 16
M  V30 17 1 6 17
M  V30 18 1 8 18
M  V30 19 1 12 19
M  V30 20 1 12 20
M  V30 END BOND
M  V30 END CTAB
M  END
