
     RDKit          3D

  0  0  0  0  0  0  0  0  0  0999 V3000
M  V30 BEGIN CTAB
M  V30 COUNTS 21 22 0 0 0
M  V30 BEGIN ATOM
M  V30 1 F 4.46125 0.216723 0.160313 0
M  V30 2 C 3.0986 0.0814853 0.106368 0
M  V30 3 C 2.26575 1.17754 0.147127 0
M  V30 4 C 0.893086 1.03405 0.0923308 0
M  V30 5 N 0.0873291 2.1217 0.133468 0
M  V30 6 C -1.25554 1.99847 0.0809289 0
M  V30 7 C -1.78369 0.720593 -0.0166359 0
M  V30 8 C -1.00976 -0.402399 -0.0610454 0
M  V30 9 C 0.358881 -0.241622 -0.00529894 0
M  V30 10 C 1.18471 -1.34668 -0.0468597 0
M  V30 11 C 2.55443 -1.18453 0.00900637 0
M  V30 12 Cl 3.60703 -2.57557 -0.0428756 0
M  V30 13 N -1.63412 -1.67689 -0.161594 0
M  V30 14 N -3.19611 0.602044 -0.0712134 0
M  V30 15 H 2.66293 2.16837 0.222356 0
M  V30 16 H -1.88229 2.87224 0.11464 0
M  V30 17 H 0.768363 -2.34135 -0.12298 0
M  V30 18 H -1.54447 -2.25508 -1.0026 0
M  V30 19 H -2.21303 -2.07555 0.625239 0
M  V30 20 H -3.69928 0.142406 0.72168 0
M  V30 21 H -3.72405 0.964049 -0.882359 0
M  V30 END ATOM
M  V30 BEGIN BOND
M  V30 1 1 1 2
M  V30 2 2 2 3
M  V30 3 1 3 4
M  V30 4 2 4 5
M  V30 5 1 5 6
M  V30 6 2 6 7
M  V30 7 1 7 8
M  V30 8 2 8 9
M  V30 9 1 9 10
M  V30 10 2 10 11
M  V30 11 1 11 12
M  V30 12 1 8 13
M  V30 13 1 7 14
M  V30 14 1 11 2
M  V30 15 1 9 4
M  V30 16 1 3 15
M  V30 17 1 6 16
M  V30 18 1 10 17
M  V30 19 1 13 18
M  V30 20 1 13 19
M  V30 21 1 14 20
M  V30 22 1 14 21
M  V30 END BOND
M  V30 END CTAB
M  END
