
     RDKit          3D

  0  0  0  0  0  0  0  0  0  0999 V3000
M  V30 BEGIN CTAB
M  V30 COUNTS 22 22 0 0 0
M  V30 BEGIN ATOM
M  V30 1 N 3.22182 0.108381 1.60659 0
M  V30 2 S 2.66886 -0.799519 0.270789 0
M  V30 3 O 2.38834 -2.20247 0.737438 0
M  V30 4 O 3.77076 -0.828905 -0.768876 0
M  V30 5 C 1.18495 -0.159094 -0.409166 0
M  V30 6 C -0.0266096 -0.60353 0.0609499 0
M  V30 7 C -1.21101 -0.132065 -0.43968 0
M  V30 8 C -1.19157 0.80776 -1.43579 0
M  V30 9 C 0.010347 1.27228 -1.9272 0
M  V30 10 C 1.19618 0.78311 -1.4078 0
M  V30 11 S -2.73568 -0.735994 0.199212 0
M  V30 12 N -3.17966 0.277719 1.50702 0
M  V30 13 O -2.47847 -2.1482 0.683484 0
M  V30 14 O -3.76797 -0.731428 -0.90229 0
M  V30 15 H 2.54694 0.0591042 2.40034 0
M  V30 16 H 3.55175 1.05367 1.38831 0
M  V30 17 H -0.0100072 -1.35439 0.856815 0
M  V30 18 H -2.14515 1.1764 -1.82725 0
M  V30 19 H -0.0280398 2.00816 -2.70719 0
M  V30 20 H 2.13487 1.15092 -1.79693 0
M  V30 21 H -3.14762 -0.210237 2.42469 0
M  V30 22 H -2.75301 1.20832 1.48653 0
M  V30 END ATOM
M  V30 BEGIN BOND
M  V30 1 1 1 2
M  V30 2 2 2 3
M  V30 3 2 2 4
M  V30 4 1 2 5
M  V30 5 2 5 6
M  V30 6 1 6 7
M  V30 7 2 7 8
M  V30 8 1 8 9
M  V30 9 2 9 10
M  V30 10 1 7 11
M  V30 11 1 11 12
M  V30 12 2 11 13
M  V30 13 2 11 14
M  V30 14 1 10 5
M  V30 15 1 1 15
M  V30 16 1 1 16
M  V30 17 1 6 17
M  V30 18 1 8 18
M  V30 19 1 9 19
M  V30 20 1 10 20
M  V30 21 1 12 21
M  V30 22 1 12 22
M  V30 END BOND
M  V30 END CTAB
M  END
