
     RDKit          3D

  0  0  0  0  0  0  0  0  0  0999 V3000
M  V30 BEGIN CTAB
M  V30 COUNTS 30 31 0 0 0
M  V30 BEGIN ATOM
M  V30 1 N 1.49753 -2.22709 0.127718 0
M  V30 2 C 0.667765 -1.0546 -0.331426 0
M  V30 3 C -0.524597 -1.08324 0.518848 0
M  V30 4 C -1.57247 -0.0787152 0.312113 0
M  V30 5 C -1.98077 0.291371 -0.929595 0
M  V30 6 C -2.99598 1.19447 -1.07643 0
M  V30 7 N -3.59758 1.72288 -0.00400458 0
M  V30 8 C -3.20878 1.37019 1.22738 0
M  V30 9 C -2.19614 0.469171 1.41012 0
M  V30 10 N -1.21476 -2.3726 0.164865 0
M  V30 11 C 1.60712 0.0539736 -0.303184 0
M  V30 12 C 1.3494 1.28814 0.180912 0
M  V30 13 C 2.35066 2.26342 0.148659 0
M  V30 14 N 3.56061 1.99232 -0.35478 0
M  V30 15 C 3.86482 0.780331 -0.847831 0
M  V30 16 C 2.90368 -0.172957 -0.822323 0
M  V30 17 H 0.920619 -3.07963 0.121434 0
M  V30 18 H 1.72394 -1.97926 1.11805 0
M  V30 19 H 0.488578 -1.31433 -1.39982 0
M  V30 20 H -0.216852 -1.14742 1.58375 0
M  V30 21 H -1.51157 -0.120579 -1.79684 0
M  V30 22 H -3.3162 1.48487 -2.07891 0
M  V30 23 H -3.69654 1.79866 2.08794 0
M  V30 24 H -1.91246 0.211071 2.44185 0
M  V30 25 H -1.47547 -2.21437 -0.853201 0
M  V30 26 H -2.11278 -2.39698 0.689325 0
M  V30 27 H 0.42261 1.61857 0.604619 0
M  V30 28 H 2.16296 3.25131 0.529792 0
M  V30 29 H 4.85758 0.608015 -1.24486 0
M  V30 30 H 3.15509 -1.15699 -1.22417 0
M  V30 END ATOM
M  V30 BEGIN BOND
M  V30 1 1 1 2
M  V30 2 1 2 3
M  V30 3 1 3 4
M  V30 4 2 4 5
M  V30 5 1 5 6
M  V30 6 2 6 7
M  V30 7 1 7 8
M  V30 8 2 8 9
M  V30 9 1 3 10
M  V30 10 1 2 11
M  V30 11 2 11 12
M  V30 12 1 12 13
M  V30 13 2 13 14
M  V30 14 1 14 15
M  V30 15 2 15 16
M  V30 16 1 9 4
M  V30 17 1 16 11
M  V30 18 1 1 17
M  V30 19 1 1 18
M  V30 20 1 2 19
M  V30 21 1 3 20
M  V30 22 1 5 21
M  V30 23 1 6 22
M  V30 24 1 8 23
M  V30 25 1 9 24
M  V30 26 1 10 25
M  V30 27 1 10 26
M  V30 28 1 12 27
M  V30 29 1 13 28
M  V30 30 1 15 29
M  V30 31 1 16 30
M  V30 END BOND
M  V30 END CTAB
M  END
