
     RDKit          3D

  0  0  0  0  0  0  0  0  0  0999 V3000
M  V30 BEGIN CTAB
M  V30 COUNTS 34 34 0 0 0
M  V30 BEGIN ATOM
M  V30 1 N 4.79793 0.749114 -0.422549 0
M  V30 2 N 3.4512 0.573224 -0.0306802 0
M  V30 3 C 3.07518 -0.347156 0.962438 0
M  V30 4 O 4.00541 -1.03134 1.5108 0
M  V30 5 C 1.71468 -0.575573 1.40982 0
M  V30 6 N 0.682772 0.190047 0.771506 0
M  V30 7 C 0.519568 -0.247641 -0.592963 0
M  V30 8 C -0.84479 -0.896044 -0.623914 0
M  V30 9 C -1.59519 -0.0488714 0.322211 0
M  V30 10 C -0.560107 -0.101852 1.47298 0
M  V30 11 C -2.87186 -0.677085 0.83993 0
M  V30 12 C -1.72301 1.39511 0.0274839 0
M  V30 13 N -2.35845 1.78557 -1.1742 0
M  V30 14 C -1.41212 -1.17184 -1.93542 0
M  V30 15 H 5.28568 1.45982 0.158551 0
M  V30 16 H 4.79582 0.957683 -1.43669 0
M  V30 17 H 2.74629 1.16047 -0.506805 0
M  V30 18 H 1.64758 -0.433726 2.52909 0
M  V30 19 H 1.49582 -1.68254 1.27589 0
M  V30 20 H 0.610518 0.550269 -1.3486 0
M  V30 21 H 1.25608 -1.03951 -0.880207 0
M  V30 22 H -0.698426 -1.89395 -0.103343 0
M  V30 23 H -0.576304 -1.14881 1.82136 0
M  V30 24 H -0.813297 0.642721 2.22946 0
M  V30 25 H -2.63101 -1.6662 1.2323 0
M  V30 26 H -3.59958 -0.749958 0.0311608 0
M  V30 27 H -3.27913 -0.0206092 1.63669 0
M  V30 28 H -2.26913 1.8534 0.905166 0
M  V30 29 H -0.712969 1.85459 0.0659347 0
M  V30 30 H -3.39806 1.82407 -1.00509 0
M  V30 31 H -2.0792 2.76571 -1.39902 0
M  V30 32 H -1.98703 -0.415639 -2.45323 0
M  V30 33 H -0.583949 -1.53818 -2.61236 0
M  V30 34 H -2.09091 -2.07526 -1.86565 0
M  V30 END ATOM
M  V30 BEGIN BOND
M  V30 1 1 1 2
M  V30 2 1 2 3
M  V30 3 2 3 4
M  V30 4 1 3 5
M  V30 5 1 5 6
M  V30 6 1 6 7
M  V30 7 1 7 8
M  V30 8 1 8 9
M  V30 9 1 9 10
M  V30 10 1 9 11
M  V30 11 1 9 12
M  V30 12 1 12 13
M  V30 13 1 8 14
M  V30 14 1 10 6
M  V30 15 1 1 15
M  V30 16 1 1 16
M  V30 17 1 2 17
M  V30 18 1 5 18
M  V30 19 1 5 19
M  V30 20 1 7 20
M  V30 21 1 7 21
M  V30 22 1 8 22
M  V30 23 1 10 23
M  V30 24 1 10 24
M  V30 25 1 11 25
M  V30 26 1 11 26
M  V30 27 1 11 27
M  V30 28 1 12 28
M  V30 29 1 12 29
M  V30 30 1 13 30
M  V30 31 1 13 31
M  V30 32 1 14 32
M  V30 33 1 14 33
M  V30 34 1 14 34
M  V30 END BOND
M  V30 END CTAB
M  END
