
     RDKit          3D

  0  0  0  0  0  0  0  0  0  0999 V3000
M  V30 BEGIN CTAB
M  V30 COUNTS 44 46 0 0 0
M  V30 BEGIN ATOM
M  V30 1 C 6.852 1.54712 1.18492 0
M  V30 2 C 6.40741 1.57274 -0.261445 0
M  V30 3 C 5.27307 0.581186 -0.394877 0
M  V30 4 N 5.34173 -0.706557 -0.690583 0
M  V30 5 C 4.25639 -1.41254 -0.763805 0
M  V30 6 C 3.06929 -0.768879 -0.52469 0
M  V30 7 S 3.59441 0.823923 -0.207218 0
M  V30 8 C 1.67702 -1.33838 -0.54281 0
M  V30 9 N 0.744516 -0.308027 -0.236702 0
M  V30 10 C -0.651047 -0.551067 -0.180982 0
M  V30 11 C -1.55879 0.442903 0.114922 0
M  V30 12 C -2.91734 0.223282 0.172989 0
M  V30 13 N -3.3774 -0.996911 -0.0656018 0
M  V30 14 C -2.50847 -2.00162 -0.36085 0
M  V30 15 N -1.1715 -1.78008 -0.416778 0
M  V30 16 N -2.98128 -3.31962 -0.620486 0
M  V30 17 C -3.78002 1.38398 0.502888 0
M  V30 18 C -4.91486 1.60414 -0.499006 0
M  V30 19 C -5.75602 2.02211 0.704882 0
M  V30 20 C -4.85589 1.09434 1.52953 0
M  V30 21 N -7.13048 1.59772 0.644053 0
M  V30 22 C 4.28791 -2.89191 -1.09924 0
M  V30 23 H 6.4053 2.39602 1.7343 0
M  V30 24 H 6.54965 0.58208 1.65343 0
M  V30 25 H 7.96358 1.59391 1.27027 0
M  V30 26 H 6.05362 2.56854 -0.569757 0
M  V30 27 H 7.20826 1.18182 -0.917936 0
M  V30 28 H 1.65493 -2.197 0.154183 0
M  V30 29 H 1.52514 -1.71285 -1.57704 0
M  V30 30 H 1.0763 0.65742 -0.0453424 0
M  V30 31 H -1.162 1.44591 0.309565 0
M  V30 32 H -3.58245 -3.82137 0.0731145 0
M  V30 33 H -2.70872 -3.77217 -1.52795 0
M  V30 34 H -3.25445 2.32611 0.6737 0
M  V30 35 H -5.21878 0.646597 -0.952989 0
M  V30 36 H -4.7232 2.40802 -1.22852 0
M  V30 37 H -5.56657 3.0706 0.943709 0
M  V30 38 H -5.23789 0.0601895 1.4887 0
M  V30 39 H -4.67291 1.50859 2.5376 0
M  V30 40 H -7.54819 1.7652 1.5854 0
M  V30 41 H -7.62428 2.19596 -0.0276152 0
M  V30 42 H 3.33507 -3.1714 -1.59693 0
M  V30 43 H 5.13914 -3.06901 -1.78807 0
M  V30 44 H 4.48779 -3.48102 -0.180913 0
M  V30 END ATOM
M  V30 BEGIN BOND
M  V30 1 1 1 2
M  V30 2 1 2 3
M  V30 3 2 3 4
M  V30 4 1 4 5
M  V30 5 2 5 6
M  V30 6 1 6 7
M  V30 7 1 6 8
M  V30 8 1 8 9
M  V30 9 1 9 10
M  V30 10 2 10 11
M  V30 11 1 11 12
M  V30 12 2 12 13
M  V30 13 1 13 14
M  V30 14 2 14 15
M  V30 15 1 14 16
M  V30 16 1 12 17
M  V30 17 1 17 18
M  V30 18 1 18 19
M  V30 19 1 19 20
M  V30 20 1 19 21
M  V30 21 1 5 22
M  V30 22 1 7 3
M  V30 23 1 15 10
M  V30 24 1 20 17
M  V30 25 1 1 23
M  V30 26 1 1 24
M  V30 27 1 1 25
M  V30 28 1 2 26
M  V30 29 1 2 27
M  V30 30 1 8 28
M  V30 31 1 8 29
M  V30 32 1 9 30
M  V30 33 1 11 31
M  V30 34 1 16 32
M  V30 35 1 16 33
M  V30 36 1 17 34
M  V30 37 1 18 35
M  V30 38 1 18 36
M  V30 39 1 19 37
M  V30 40 1 20 38
M  V30 41 1 20 39
M  V30 42 1 21 40
M  V30 43 1 21 41
M  V30 44 1 22 42
M  V30 45 1 22 43
M  V30 46 1 22 44
M  V30 END BOND
M  V30 END CTAB
M  END
