
     RDKit          3D

  0  0  0  0  0  0  0  0  0  0999 V3000
M  V30 BEGIN CTAB
M  V30 COUNTS 48 51 0 0 0
M  V30 BEGIN ATOM
M  V30 1 F 0.934097 6.45645 0.532352 0
M  V30 2 C 1.09538 5.117 0.379183 0
M  V30 3 C 0.405797 4.46002 -0.609405 0
M  V30 4 C 0.588114 3.1035 -0.745351 0
M  V30 5 C 1.42942 2.39109 0.0662052 0
M  V30 6 C 2.10148 3.11221 1.05123 0
M  V30 7 C 1.96488 4.46568 1.24124 0
M  V30 8 C 1.68217 0.953682 -0.0531326 0
M  V30 9 N 2.96161 0.563382 0.0405464 0
M  V30 10 C 3.3922 -0.690772 -0.0514604 0
M  V30 11 N 4.66296 -1.09088 0.0488191 0
M  V30 12 C 5.06748 -2.37108 -0.0367246 0
M  V30 13 N 6.41819 -2.77091 0.0796151 0
M  V30 14 N 4.10673 -3.28837 -0.237205 0
M  V30 15 C 2.81064 -2.97101 -0.347518 0
M  V30 16 C 2.41377 -1.64796 -0.259142 0
M  V30 17 C 1.08212 -1.30586 -0.363463 0
M  V30 18 C 0.716826 0.00680044 -0.258226 0
M  V30 19 C -0.721956 0.383578 -0.311221 0
M  V30 20 C -1.55023 -0.732595 0.285833 0
M  V30 21 N -2.93677 -0.338139 0.316739 0
M  V30 22 C -3.57878 -0.20275 -0.953662 0
M  V30 23 C -4.87963 0.571134 -0.673709 0
M  V30 24 O -5.69038 -0.153089 0.164819 0
M  V30 25 C -5.1669 -1.34942 0.58777 0
M  V30 26 C -3.75069 -1.18015 1.14686 0
M  V30 27 N 1.83999 -3.99021 -0.553874 0
M  V30 28 H -0.287392 5.00116 -1.2787 0
M  V30 29 H 0.0325234 2.60861 -1.52794 0
M  V30 30 H 2.79023 2.60684 1.7282 0
M  V30 31 H 2.50798 4.99284 2.02714 0
M  V30 32 H 6.83542 -3.37103 -0.639133 0
M  V30 33 H 6.97114 -2.45916 0.887125 0
M  V30 34 H 0.398763 -2.12281 -0.519268 0
M  V30 35 H -1.01232 0.477958 -1.36959 0
M  V30 36 H -0.927318 1.26687 0.315487 0
M  V30 37 H -1.21693 -1.01427 1.27553 0
M  V30 38 H -1.51803 -1.62158 -0.410692 0
M  V30 39 H -3.01613 0.422076 -1.68523 0
M  V30 40 H -3.79318 -1.18257 -1.37337 0
M  V30 41 H -5.38716 0.799448 -1.63994 0
M  V30 42 H -4.52878 1.51987 -0.187518 0
M  V30 43 H -5.79523 -1.69975 1.43905 0
M  V30 44 H -5.2126 -2.15524 -0.173762 0
M  V30 45 H -3.31707 -2.19298 1.23607 0
M  V30 46 H -3.883 -0.676753 2.13207 0
M  V30 47 H 1.76031 -4.53129 -1.4301 0
M  V30 48 H 1.20023 -4.16955 0.247104 0
M  V30 END ATOM
M  V30 BEGIN BOND
M  V30 1 1 1 2
M  V30 2 2 2 3
M  V30 3 1 3 4
M  V30 4 2 4 5
M  V30 5 1 5 6
M  V30 6 2 6 7
M  V30 7 1 5 8
M  V30 8 2 8 9
M  V30 9 1 9 10
M  V30 10 2 10 11
M  V30 11 1 11 12
M  V30 12 1 12 13
M  V30 13 2 12 14
M  V30 14 1 14 15
M  V30 15 2 15 16
M  V30 16 1 16 17
M  V30 17 2 17 18
M  V30 18 1 18 19
M  V30 19 1 19 20
M  V30 20 1 20 21
M  V30 21 1 21 22
M  V30 22 1 22 23
M  V30 23 1 23 24
M  V30 24 1 24 25
M  V30 25 1 25 26
M  V30 26 1 15 27
M  V30 27 1 7 2
M  V30 28 1 18 8
M  V30 29 1 26 21
M  V30 30 1 16 10
M  V30 31 1 3 28
M  V30 32 1 4 29
M  V30 33 1 6 30
M  V30 34 1 7 31
M  V30 35 1 13 32
M  V30 36 1 13 33
M  V30 37 1 17 34
M  V30 38 1 19 35
M  V30 39 1 19 36
M  V30 40 1 20 37
M  V30 41 1 20 38
M  V30 42 1 22 39
M  V30 43 1 22 40
M  V30 44 1 23 41
M  V30 45 1 23 42
M  V30 46 1 25 43
M  V30 47 1 25 44
M  V30 48 1 26 45
M  V30 49 1 26 46
M  V30 50 1 27 47
M  V30 51 1 27 48
M  V30 END BOND
M  V30 END CTAB
M  END
