
     RDKit          3D

  0  0  0  0  0  0  0  0  0  0999 V3000
M  V30 BEGIN CTAB
M  V30 COUNTS 31 32 0 0 0
M  V30 BEGIN ATOM
M  V30 1 N 1.21157 -3.34755 0.0992495 0
M  V30 2 C 1.45035 -1.96714 0.129002 0
M  V30 3 C 2.7327 -1.45991 0.285616 0
M  V30 4 C 2.98769 -0.114305 0.317327 0
M  V30 5 C 1.93497 0.798923 0.189364 0
M  V30 6 C 0.67425 0.290907 0.0353891 0
M  V30 7 C -0.379074 1.17081 -0.0926681 0
M  V30 8 C -1.67586 0.72454 -0.251019 0
M  V30 9 C -1.95067 -0.598598 -0.285138 0
M  V30 10 N -3.29589 -1.01039 -0.449374 0
M  V30 11 C -0.909986 -1.54875 -0.158655 0
M  V30 12 O -1.27696 -2.81953 -0.203985 0
M  V30 13 C 0.401101 -1.08589 0.00144935 0
M  V30 14 S -2.97222 1.89312 -0.408553 0
M  V30 15 O -4.07875 1.66987 0.84706 0
M  V30 16 O -3.67758 1.6031 -1.70793 0
M  V30 17 O -2.44479 3.28637 -0.449194 0
M  V30 18 S 2.22032 2.50217 0.224932 0
M  V30 19 O 3.86194 2.83969 0.42518 0
M  V30 20 O 1.83031 3.14084 -1.08578 0
M  V30 21 O 1.52769 3.16578 1.38493 0
M  V30 22 H 1.23637 -3.8433 -0.804006 0
M  V30 23 H 1.01068 -3.88053 0.991116 0
M  V30 24 H 3.55388 -2.17917 0.385418 0
M  V30 25 H 3.96966 0.317768 0.437288 0
M  V30 26 H -0.156849 2.24104 -0.0651032 0
M  V30 27 H -3.64747 -1.14235 -1.42179 0
M  V30 28 H -3.85992 -1.15871 0.411167 0
M  V30 29 H -1.05699 -3.70467 -0.17757 0
M  V30 30 H -3.62295 1.66528 1.72982 0
M  V30 31 H 4.40246 2.55058 -0.333553 0
M  V30 END ATOM
M  V30 BEGIN BOND
M  V30 1 1 1 2
M  V30 2 2 2 3
M  V30 3 1 3 4
M  V30 4 2 4 5
M  V30 5 1 5 6
M  V30 6 2 6 7
M  V30 7 1 7 8
M  V30 8 2 8 9
M  V30 9 1 9 10
M  V30 10 1 9 11
M  V30 11 1 11 12
M  V30 12 2 11 13
M  V30 13 1 8 14
M  V30 14 1 14 15
M  V30 15 2 14 16
M  V30 16 2 14 17
M  V30 17 1 5 18
M  V30 18 1 18 19
M  V30 19 2 18 20
M  V30 20 2 18 21
M  V30 21 1 13 2
M  V30 22 1 13 6
M  V30 23 1 1 22
M  V30 24 1 1 23
M  V30 25 1 3 24
M  V30 26 1 4 25
M  V30 27 1 7 26
M  V30 28 1 10 27
M  V30 29 1 10 28
M  V30 30 1 12 29
M  V30 31 1 15 30
M  V30 32 1 19 31
M  V30 END BOND
M  V30 END CTAB
M  END
