
     RDKit          3D

  0  0  0  0  0  0  0  0  0  0999 V3000
M  V30 BEGIN CTAB
M  V30 COUNTS 59 63 0 0 0
M  V30 BEGIN ATOM
M  V30 1 C 2.0487 -3.73498 -0.778326 0
M  V30 2 C 1.29761 -3.08191 0.313629 0
M  V30 3 C 2.08135 -2.51406 1.44719 0
M  V30 4 O 2.85484 -1.44986 1.38738 0
M  V30 5 C 3.93143 -0.870262 0.886233 0
M  V30 6 C 4.19915 0.452582 1.28748 0
M  V30 7 C 5.2799 1.16438 0.84397 0
M  V30 8 C 5.47887 2.463 1.28264 0
M  V30 9 N 4.52567 2.99631 2.19144 0
M  V30 10 N 6.53591 3.20866 0.87075 0
M  V30 11 C 7.38919 2.62992 0.012068 0
M  V30 12 C 7.2356 1.34659 -0.451719 0
M  V30 13 C 6.15345 0.594216 -0.02515 0
M  V30 14 C 5.95374 -0.692439 -0.457861 0
M  V30 15 C 4.84819 -1.40247 0.00415939 0
M  V30 16 N 0.271811 -2.2115 -0.237135 0
M  V30 17 C -1.16194 -2.41751 0.00788827 0
M  V30 18 C -1.82132 -1.24601 -0.601423 0
M  V30 19 C -3.17404 -0.877241 -0.626243 0
M  V30 20 C -3.60252 0.246281 -1.27994 0
M  V30 21 C -2.6473 1.00582 -1.91826 0
M  V30 22 C -1.31139 0.677382 -1.91647 0
M  V30 23 C -0.901876 -0.476798 -1.23829 0
M  V30 24 C 0.424903 -1.06731 -1.02665 0
M  V30 25 O 1.4663 -0.548504 -1.52346 0
M  V30 26 C -4.98011 0.70318 -1.32843 0
M  V30 27 C -5.72528 0.521655 -2.51285 0
M  V30 28 C -7.0258 0.916847 -2.58915 0
M  V30 29 C -7.65768 1.50342 -1.523 0
M  V30 30 C -6.93532 1.68158 -0.370013 0
M  V30 31 C -5.58876 1.28329 -0.261876 0
M  V30 32 S -4.76022 1.58005 1.22829 0
M  V30 33 N -5.81306 2.41789 2.35024 0
M  V30 34 O -4.37565 0.314372 1.93796 0
M  V30 35 O -3.54198 2.42067 1.08015 0
M  V30 36 H 2.34547 -3.05725 -1.60421 0
M  V30 37 H 1.36682 -4.49521 -1.26036 0
M  V30 38 H 2.94118 -4.28549 -0.476686 0
M  V30 39 H 0.710489 -3.9508 0.825666 0
M  V30 40 H 2.65809 -3.37256 1.96791 0
M  V30 41 H 1.27165 -2.32047 2.26336 0
M  V30 42 H 3.5019 0.932719 1.99238 0
M  V30 43 H 4.56289 2.80844 3.22597 0
M  V30 44 H 3.75085 3.59632 1.8634 0
M  V30 45 H 8.24687 3.23366 -0.322699 0
M  V30 46 H 7.93913 0.888207 -1.15135 0
M  V30 47 H 6.65435 -1.13865 -1.14998 0
M  V30 48 H 4.74935 -2.39576 -0.356328 0
M  V30 49 H -1.29229 -2.40815 1.11403 0
M  V30 50 H -1.47223 -3.37539 -0.431938 0
M  V30 51 H -3.87817 -1.52234 -0.123528 0
M  V30 52 H -2.9176 1.91942 -2.46353 0
M  V30 53 H -0.587831 1.28057 -2.4179 0
M  V30 54 H -5.19887 0.0566691 -3.33488 0
M  V30 55 H -7.56395 0.768647 -3.49239 0
M  V30 56 H -8.68593 1.80684 -1.60755 0
M  V30 57 H -7.41511 2.13578 0.464112 0
M  V30 58 H -5.90787 3.42317 2.06523 0
M  V30 59 H -6.73155 1.93438 2.42613 0
M  V30 END ATOM
M  V30 BEGIN BOND
M  V30 1 1 1 2
M  V30 2 1 2 3
M  V30 3 1 3 4
M  V30 4 1 4 5
M  V30 5 2 5 6
M  V30 6 1 6 7
M  V30 7 2 7 8
M  V30 8 1 8 9
M  V30 9 1 8 10
M  V30 10 2 10 11
M  V30 11 1 11 12
M  V30 12 2 12 13
M  V30 13 1 13 14
M  V30 14 2 14 15
M  V30 15 1 2 16
M  V30 16 1 16 17
M  V30 17 1 17 18
M  V30 18 2 18 19
M  V30 19 1 19 20
M  V30 20 2 20 21
M  V30 21 1 21 22
M  V30 22 2 22 23
M  V30 23 1 23 24
M  V30 24 2 24 25
M  V30 25 1 20 26
M  V30 26 2 26 27
M  V30 27 1 27 28
M  V30 28 2 28 29
M  V30 29 1 29 30
M  V30 30 2 30 31
M  V30 31 1 31 32
M  V30 32 1 32 33
M  V30 33 2 32 34
M  V30 34 2 32 35
M  V30 35 1 15 5
M  V30 36 1 24 16
M  V30 37 1 31 26
M  V30 38 1 13 7
M  V30 39 1 23 18
M  V30 40 1 1 36
M  V30 41 1 1 37
M  V30 42 1 1 38
M  V30 43 1 2 39
M  V30 44 1 3 40
M  V30 45 1 3 41
M  V30 46 1 6 42
M  V30 47 1 9 43
M  V30 48 1 9 44
M  V30 49 1 11 45
M  V30 50 1 12 46
M  V30 51 1 14 47
M  V30 52 1 15 48
M  V30 53 1 17 49
M  V30 54 1 17 50
M  V30 55 1 19 51
M  V30 56 1 21 52
M  V30 57 1 22 53
M  V30 58 1 27 54
M  V30 59 1 28 55
M  V30 60 1 29 56
M  V30 61 1 30 57
M  V30 62 1 33 58
M  V30 63 1 33 59
M  V30 END BOND
M  V30 END CTAB
M  END
