
     RDKit          3D

  0  0  0  0  0  0  0  0  0  0999 V3000
M  V30 BEGIN CTAB
M  V30 COUNTS 55 57 0 0 0
M  V30 BEGIN ATOM
M  V30 1 C -2.31264 -4.52669 0.000275057 0
M  V30 2 C -2.17345 -3.41663 1.03933 0
M  V30 3 C -2.34856 -2.11178 0.308989 0
M  V30 4 C -2.23609 -0.92143 1.21119 0
M  V30 5 N -2.41103 0.296055 0.441569 0
M  V30 6 C -1.46549 1.02697 -0.139614 0
M  V30 7 S 0.283928 0.718211 -0.127214 0
M  V30 8 C 0.81932 -0.28627 -1.50561 0
M  V30 9 C 2.30586 -0.468015 -1.39998 0
M  V30 10 O 2.92307 -1.15284 -2.27435 0
M  V30 11 N 3.04192 0.115222 -0.333231 0
M  V30 12 C 4.427 -0.0143249 -0.174873 0
M  V30 13 C 4.92045 -1.07148 0.561695 0
M  V30 14 Cl 3.84167 -2.25487 1.30247 0
M  V30 15 C 6.28592 -1.18941 0.711177 0
M  V30 16 C 7.13514 -0.260477 0.129842 0
M  V30 17 C 6.63242 0.793473 -0.605042 0
M  V30 18 C 5.26854 0.912246 -0.755009 0
M  V30 19 Cl 4.62532 2.2647 -1.69797 0
M  V30 20 S 8.87512 -0.361465 0.287165 0
M  V30 21 O 9.22269 -1.81394 0.535393 0
M  V30 22 O 9.58766 0.150114 -0.918318 0
M  V30 23 N 9.33356 0.532575 1.70781 0
M  V30 24 N -2.10972 2.06875 -0.74778 0
M  V30 25 C -3.42948 1.96535 -0.534289 0
M  V30 26 C -3.64412 0.837286 0.225137 0
M  V30 27 C -4.92814 0.477892 0.601767 0
M  V30 28 C -6.03115 1.22516 0.236657 0
M  V30 29 C -5.81185 2.34983 -0.521061 0
M  V30 30 C -4.54029 2.71785 -0.901957 0
M  V30 31 S -7.17609 3.31031 -0.996019 0
M  V30 32 O -8.38661 2.43646 -1.18619 0
M  V30 33 O -6.91202 3.97596 -2.31856 0
M  V30 34 N -7.53991 4.54104 0.158931 0
M  V30 35 H -1.30923 -4.86868 -0.271204 0
M  V30 36 H -2.82487 -4.14851 -0.922821 0
M  V30 37 H -2.95478 -5.35102 0.422463 0
M  V30 38 H -1.21205 -3.48592 1.56343 0
M  V30 39 H -2.98215 -3.49787 1.79509 0
M  V30 40 H -1.64676 -1.99738 -0.533926 0
M  V30 41 H -3.3604 -2.11751 -0.150931 0
M  V30 42 H -1.25642 -0.89677 1.73464 0
M  V30 43 H -3.0319 -0.990173 1.9652 0
M  V30 44 H 0.374864 -1.28409 -1.52592 0
M  V30 45 H 0.615928 0.280681 -2.46214 0
M  V30 46 H 2.51876 0.676706 0.379325 0
M  V30 47 H 6.71235 -2.01193 1.28646 0
M  V30 48 H 7.26542 1.53818 -1.07354 0
M  V30 49 H 9.31878 1.55614 1.43542 0
M  V30 50 H 8.58433 0.386415 2.40212 0
M  V30 51 H -5.03458 -0.427417 1.20392 0
M  V30 52 H -6.99916 0.885718 0.565294 0
M  V30 53 H -4.43286 3.60043 -1.48941 0
M  V30 54 H -6.68282 5.14546 0.271162 0
M  V30 55 H -7.73539 4.14173 1.08304 0
M  V30 END ATOM
M  V30 BEGIN BOND
M  V30 1 1 1 2
M  V30 2 1 2 3
M  V30 3 1 3 4
M  V30 4 1 4 5
M  V30 5 1 5 6
M  V30 6 1 6 7
M  V30 7 1 7 8
M  V30 8 1 8 9
M  V30 9 2 9 10
M  V30 10 1 9 11
M  V30 11 1 11 12
M  V30 12 2 12 13
M  V30 13 1 13 14
M  V30 14 1 13 15
M  V30 15 2 15 16
M  V30 16 1 16 17
M  V30 17 2 17 18
M  V30 18 1 18 19
M  V30 19 1 16 20
M  V30 20 2 20 21
M  V30 21 2 20 22
M  V30 22 1 20 23
M  V30 23 2 6 24
M  V30 24 1 24 25
M  V30 25 2 25 26
M  V30 26 1 26 27
M  V30 27 2 27 28
M  V30 28 1 28 29
M  V30 29 2 29 30
M  V30 30 1 29 31
M  V30 31 2 31 32
M  V30 32 2 31 33
M  V30 33 1 31 34
M  V30 34 1 26 5
M  V30 35 1 18 12
M  V30 36 1 30 25
M  V30 37 1 1 35
M  V30 38 1 1 36
M  V30 39 1 1 37
M  V30 40 1 2 38
M  V30 41 1 2 39
M  V30 42 1 3 40
M  V30 43 1 3 41
M  V30 44 1 4 42
M  V30 45 1 4 43
M  V30 46 1 8 44
M  V30 47 1 8 45
M  V30 48 1 11 46
M  V30 49 1 15 47
M  V30 50 1 17 48
M  V30 51 1 23 49
M  V30 52 1 23 50
M  V30 53 1 27 51
M  V30 54 1 28 52
M  V30 55 1 30 53
M  V30 56 1 34 54
M  V30 57 1 34 55
M  V30 END BOND
M  V30 END CTAB
M  END
