
     RDKit          3D

  0  0  0  0  0  0  0  0  0  0999 V3000
M  V30 BEGIN CTAB
M  V30 COUNTS 43 46 0 0 0
M  V30 BEGIN ATOM
M  V30 1 N -5.928 1.67157 -1.15558 0
M  V30 2 C -5.28208 0.618481 -0.398215 0
M  V30 3 C -5.13241 0.678542 1.05328 0
M  V30 4 C -3.9291 0.978874 0.149946 0
M  V30 5 O -2.93551 0.0140289 0.07897 0
M  V30 6 C -1.60072 0.2791 0.0670849 0
M  V30 7 C -1.11709 1.54761 0.125413 0
M  V30 8 C 0.253254 1.76676 0.110966 0
M  V30 9 C 1.14628 0.689768 0.0358063 0
M  V30 10 C 2.57583 0.938591 0.00535956 0
M  V30 11 C 3.03084 2.2472 -0.227042 0
M  V30 12 C 4.37599 2.5511 -0.286647 0
M  V30 13 C 5.31518 1.57094 -0.118861 0
M  V30 14 C 4.83216 0.276376 0.110733 0
M  V30 15 N 5.78403 -0.787519 0.292933 0
M  V30 16 N 3.53006 0.0492935 0.156879 0
M  V30 17 C 0.629271 -0.620417 -0.0252829 0
M  V30 18 C -0.722257 -0.823063 -0.00894339 0
M  V30 19 C -1.35722 -2.15825 -0.0525565 0
M  V30 20 C -0.364278 -3.10679 0.618323 0
M  V30 21 C 0.866332 -3.05714 -0.25546 0
M  V30 22 C 1.55449 -1.73864 -0.132601 0
M  V30 23 H -6.94875 1.70215 -1.04577 0
M  V30 24 H -5.44259 2.57331 -1.12154 0
M  V30 25 H -5.35327 -0.373321 -0.874964 0
M  V30 26 H -5.05269 -0.298886 1.59898 0
M  V30 27 H -5.53973 1.46986 1.68355 0
M  V30 28 H -3.65003 2.05836 0.202313 0
M  V30 29 H -1.75824 2.42675 0.184428 0
M  V30 30 H 0.663981 2.74288 0.166272 0
M  V30 31 H 2.39375 3.09645 -0.383753 0
M  V30 32 H 4.73773 3.55924 -0.465372 0
M  V30 33 H 6.38177 1.7268 -0.151178 0
M  V30 34 H 5.83096 -1.57147 -0.367684 0
M  V30 35 H 6.4184 -0.744414 1.10285 0
M  V30 36 H -2.33409 -2.1855 0.432723 0
M  V30 37 H -1.43306 -2.51047 -1.11523 0
M  V30 38 H -0.809657 -4.1142 0.57712 0
M  V30 39 H -0.196895 -2.71697 1.62649 0
M  V30 40 H 1.58852 -3.848 0.0278305 0
M  V30 41 H 0.527211 -3.16493 -1.31169 0
M  V30 42 H 2.13006 -1.79112 0.840217 0
M  V30 43 H 2.32157 -1.62293 -0.933303 0
M  V30 END ATOM
M  V30 BEGIN BOND
M  V30 1 1 1 2
M  V30 2 1 2 3
M  V30 3 1 3 4
M  V30 4 1 4 5
M  V30 5 1 5 6
M  V30 6 2 6 7
M  V30 7 1 7 8
M  V30 8 2 8 9
M  V30 9 1 9 10
M  V30 10 2 10 11
M  V30 11 1 11 12
M  V30 12 2 12 13
M  V30 13 1 13 14
M  V30 14 1 14 15
M  V30 15 2 14 16
M  V30 16 1 9 17
M  V30 17 2 17 18
M  V30 18 1 18 19
M  V30 19 1 19 20
M  V30 20 1 20 21
M  V30 21 1 21 22
M  V30 22 1 4 2
M  V30 23 1 18 6
M  V30 24 1 16 10
M  V30 25 1 22 17
M  V30 26 1 1 23
M  V30 27 1 1 24
M  V30 28 1 2 25
M  V30 29 1 3 26
M  V30 30 1 3 27
M  V30 31 1 4 28
M  V30 32 1 7 29
M  V30 33 1 8 30
M  V30 34 1 11 31
M  V30 35 1 12 32
M  V30 36 1 13 33
M  V30 37 1 15 34
M  V30 38 1 15 35
M  V30 39 1 19 36
M  V30 40 1 19 37
M  V30 41 1 20 38
M  V30 42 1 20 39
M  V30 43 1 21 40
M  V30 44 1 21 41
M  V30 45 1 22 42
M  V30 46 1 22 43
M  V30 END BOND
M  V30 END CTAB
M  END
