
     RDKit          3D

  0  0  0  0  0  0  0  0  0  0999 V3000
M  V30 BEGIN CTAB
M  V30 COUNTS 24 24 0 0 0
M  V30 BEGIN ATOM
M  V30 1 N 3.29146 -1.44159 0.720745 0
M  V30 2 C 2.56104 -0.341644 0.21373 0
M  V30 3 N 1.3491 -0.188578 0.603468 0
M  V30 4 C 0.59946 0.92031 0.0978318 0
M  V30 5 C -0.879015 0.713616 0.0878503 0
M  V30 6 C -1.269 -0.487786 -0.782572 0
M  V30 7 C -2.73804 -0.633245 -0.356213 0
M  V30 8 C -2.80173 0.00748033 1.00222 0
M  V30 9 N -1.42519 0.326644 1.35237 0
M  V30 10 N 3.19399 0.536814 -0.695373 0
M  V30 11 H 3.43971 -2.27326 0.139 0
M  V30 12 H 3.67707 -1.39885 1.68998 0
M  V30 13 H 0.917085 1.06301 -0.973202 0
M  V30 14 H 0.812416 1.87708 0.596769 0
M  V30 15 H -1.36142 1.58969 -0.353655 0
M  V30 16 H -1.16491 -0.281794 -1.84627 0
M  V30 17 H -0.720445 -1.39395 -0.472168 0
M  V30 18 H -3.31554 -0.0756973 -1.12221 0
M  V30 19 H -3.06025 -1.68679 -0.367354 0
M  V30 20 H -3.32131 0.997668 0.885401 0
M  V30 21 H -3.29142 -0.6269 1.75938 0
M  V30 22 H -1.36795 1.04414 2.09354 0
M  V30 23 H 3.17682 0.385856 -1.74557 0
M  V30 24 H 3.69807 1.36779 -0.308223 0
M  V30 END ATOM
M  V30 BEGIN BOND
M  V30 1 1 1 2
M  V30 2 2 2 3 CFG=2
M  V30 3 1 3 4
M  V30 4 1 4 5
M  V30 5 1 5 6
M  V30 6 1 6 7
M  V30 7 1 7 8
M  V30 8 1 8 9
M  V30 9 1 2 10
M  V30 10 1 9 5
M  V30 11 1 1 11
M  V30 12 1 1 12
M  V30 13 1 4 13
M  V30 14 1 4 14
M  V30 15 1 5 15
M  V30 16 1 6 16
M  V30 17 1 6 17
M  V30 18 1 7 18
M  V30 19 1 7 19
M  V30 20 1 8 20
M  V30 21 1 8 21
M  V30 22 1 9 22
M  V30 23 1 10 23
M  V30 24 1 10 24
M  V30 END BOND
M  V30 END CTAB
M  END
