
     RDKit          3D

  0  0  0  0  0  0  0  0  0  0999 V3000
M  V30 BEGIN CTAB
M  V30 COUNTS 44 47 0 0 0
M  V30 BEGIN ATOM
M  V30 1 N 6.95672 -1.10555 -0.714851 0
M  V30 2 C 5.60274 -1.49366 -0.535498 0
M  V30 3 N 5.26451 -2.72725 0.0789956 0
M  V30 4 N 4.66398 -0.707078 -0.940277 0
M  V30 5 C 3.29334 -1.0654 -0.776039 0
M  V30 6 O 3.01733 -2.28487 -0.88511 0
M  V30 7 C 2.29088 -0.0639843 -0.499385 0
M  V30 8 C 0.966123 -0.48466 -0.349781 0
M  V30 9 C -0.0301014 0.412193 -0.0886286 0
M  V30 10 C 0.33128 1.7589 0.0245261 0
M  V30 11 C 1.65984 2.16224 -0.127553 0
M  V30 12 C 2.65191 1.24649 -0.392265 0
M  V30 13 C -0.841436 2.5233 0.31971 0
M  V30 14 C -1.94657 1.66305 0.393057 0
M  V30 15 C -3.14692 2.24631 0.651414 0
M  V30 16 C -3.25534 3.61589 0.831829 0
M  V30 17 C -2.17597 4.44894 0.760437 0
M  V30 18 C -0.959343 3.89463 0.501649 0
M  V30 19 F 0.100083 4.73982 0.433741 0
M  V30 20 C -1.49246 0.275413 0.137135 0
M  V30 21 C -2.22919 -0.811648 0.00665636 0
M  V30 22 C -1.65268 -2.11257 -0.433043 0
M  V30 23 C -2.67582 -3.13554 -0.877327 0
M  V30 24 S -4.05144 -2.37047 -1.81018 0
M  V30 25 C -4.53478 -0.859653 -0.863861 0
M  V30 26 C -3.64813 -0.857486 0.382953 0
M  V30 27 H 7.31114 -1.12261 -1.70768 0
M  V30 28 H 7.59669 -0.817498 0.0343111 0
M  V30 29 H 5.23205 -3.59428 -0.509413 0
M  V30 30 H 5.05016 -2.80059 1.08099 0
M  V30 31 H 0.800762 -1.53449 -0.424331 0
M  V30 32 H 1.9511 3.21022 -0.0417388 0
M  V30 33 H 3.68233 1.55839 -0.510813 0
M  V30 34 H -4.04788 1.71102 0.708016 0
M  V30 35 H -4.23349 4.05353 1.03875 0
M  V30 36 H -2.27208 5.51927 0.903166 0
M  V30 37 H -1.10399 -2.54656 0.39929 0
M  V30 38 H -1.04846 -1.95364 -1.38275 0
M  V30 39 H -2.21827 -3.92777 -1.49295 0
M  V30 40 H -3.11186 -3.60252 0.0150571 0
M  V30 41 H -4.31793 0.0121243 -1.48108 0
M  V30 42 H -5.57536 -0.91559 -0.603477 0
M  V30 43 H -4.03519 -0.221607 1.12978 0
M  V30 44 H -3.81825 -1.93472 0.824412 0
M  V30 END ATOM
M  V30 BEGIN BOND
M  V30 1 1 1 2
M  V30 2 1 2 3
M  V30 3 2 2 4
M  V30 4 1 4 5
M  V30 5 2 5 6
M  V30 6 1 5 7
M  V30 7 2 7 8
M  V30 8 1 8 9
M  V30 9 2 9 10
M  V30 10 1 10 11
M  V30 11 2 11 12
M  V30 12 1 10 13
M  V30 13 2 13 14
M  V30 14 1 14 15
M  V30 15 2 15 16
M  V30 16 1 16 17
M  V30 17 2 17 18
M  V30 18 1 18 19
M  V30 19 1 14 20
M  V30 20 2 20 21 CFG=2
M  V30 21 1 21 22
M  V30 22 1 22 23
M  V30 23 1 23 24
M  V30 24 1 24 25
M  V30 25 1 25 26
M  V30 26 1 12 7
M  V30 27 1 18 13
M  V30 28 1 26 21
M  V30 29 1 20 9
M  V30 30 1 1 27
M  V30 31 1 1 28
M  V30 32 1 3 29
M  V30 33 1 3 30
M  V30 34 1 8 31
M  V30 35 1 11 32
M  V30 36 1 12 33
M  V30 37 1 15 34
M  V30 38 1 16 35
M  V30 39 1 17 36
M  V30 40 1 22 37
M  V30 41 1 22 38
M  V30 42 1 23 39
M  V30 43 1 23 40
M  V30 44 1 25 41
M  V30 45 1 25 42
M  V30 46 1 26 43
M  V30 47 1 26 44
M  V30 END BOND
M  V30 END CTAB
M  END
