
     RDKit          3D

  0  0  0  0  0  0  0  0  0  0999 V3000
M  V30 BEGIN CTAB
M  V30 COUNTS 22 22 0 0 0
M  V30 BEGIN ATOM
M  V30 1 N -0.310934 2.47093 -0.178721 0
M  V30 2 C -1.0943 1.26724 -0.0359184 0
M  V30 3 N -2.42982 1.3713 -0.147067 0
M  V30 4 C -3.19622 0.289202 -0.0281646 0
M  V30 5 C -2.63855 -0.945836 0.208692 0
M  V30 6 C -1.26854 -1.05333 0.322807 0
M  V30 7 C -0.475688 0.0527399 0.201771 0
M  V30 8 C 0.992417 0.0745327 0.306358 0
M  V30 9 C 1.63073 -1.27214 0.328868 0
M  V30 10 N 3.06763 -1.10071 0.431344 0
M  V30 11 O 1.48455 0.782829 -0.789042 0
M  V30 12 Cl -3.68074 -2.32217 0.358815 0
M  V30 13 H 0.352345 2.78651 0.556596 0
M  V30 14 H -0.416678 3.03094 -1.04276 0
M  V30 15 H -4.28817 0.390951 -0.118702 0
M  V30 16 H -0.798293 -2.00359 0.510154 0
M  V30 17 H 1.25256 0.619954 1.23606 0
M  V30 18 H 1.29749 -1.96351 1.09744 0
M  V30 19 H 1.45882 -1.80056 -0.651851 0
M  V30 20 H 3.35761 -0.188538 0.841524 0
M  V30 21 H 3.54938 -1.92941 0.840721 0
M  V30 22 H 2.15442 1.44267 -0.480645 0
M  V30 END ATOM
M  V30 BEGIN BOND
M  V30 1 1 1 2
M  V30 2 2 2 3
M  V30 3 1 3 4
M  V30 4 2 4 5
M  V30 5 1 5 6
M  V30 6 2 6 7
M  V30 7 1 7 8
M  V30 8 1 8 9
M  V30 9 1 9 10
M  V30 10 1 8 11
M  V30 11 1 5 12
M  V30 12 1 7 2
M  V30 13 1 1 13
M  V30 14 1 1 14
M  V30 15 1 4 15
M  V30 16 1 6 16
M  V30 17 1 8 17
M  V30 18 1 9 18
M  V30 19 1 9 19
M  V30 20 1 10 20
M  V30 21 1 10 21
M  V30 22 1 11 22
M  V30 END BOND
M  V30 END CTAB
M  END
