
     RDKit          3D

  0  0  0  0  0  0  0  0  0  0999 V3000
M  V30 BEGIN CTAB
M  V30 COUNTS 50 50 0 0 0
M  V30 BEGIN ATOM
M  V30 1 C -4.90473 -1.38292 -1.13901 0
M  V30 2 C -3.445 -1.47229 -1.08455 0
M  V30 3 C -2.66046 -0.407637 -0.387578 0
M  V30 4 N -1.2699 -0.818348 -0.508053 0
M  V30 5 C -0.172008 -0.116662 0.0478495 0
M  V30 6 O -0.257213 0.936879 0.711548 0
M  V30 7 C 1.17308 -0.664675 -0.16899 0
M  V30 8 C 2.28868 -0.0101924 0.542185 0
M  V30 9 C 2.13492 -0.0900382 2.03922 0
M  V30 10 N 3.26318 0.569053 2.71163 0
M  V30 11 C 3.59182 -0.749569 0.224656 0
M  V30 12 C 4.07029 -0.452775 -1.17418 0
M  V30 13 C 4.45948 0.984351 -1.33622 0
M  V30 14 C 3.96449 1.7437 -0.119566 0
M  V30 15 C 2.52014 1.42352 0.121391 0
M  V30 16 C -2.98347 -0.254336 1.05439 0
M  V30 17 N -2.74905 -1.43334 1.85049 0
M  V30 18 C -2.74908 0.937012 -1.05754 0
M  V30 19 C -4.11014 1.5274 -1.1668 0
M  V30 20 H -5.21377 -1.1239 -2.19707 0
M  V30 21 H -5.37908 -2.41847 -1.03274 0
M  V30 22 H -5.41293 -0.665234 -0.492558 0
M  V30 23 H -2.9831 -1.58299 -2.11039 0
M  V30 24 H -3.16939 -2.44505 -0.578243 0
M  V30 25 H -1.04624 -1.70661 -1.04975 0
M  V30 26 H 1.42724 -0.708593 -1.27081 0
M  V30 27 H 1.13172 -1.76045 0.109336 0
M  V30 28 H 2.264 -1.18249 2.31564 0
M  V30 29 H 1.21086 0.314462 2.43441 0
M  V30 30 H 4.01969 -0.0913989 2.93893 0
M  V30 31 H 2.89839 1.08286 3.52617 0
M  V30 32 H 3.46907 -1.8378 0.324629 0
M  V30 33 H 4.3389 -0.393223 0.951629 0
M  V30 34 H 4.99184 -1.06331 -1.31967 0
M  V30 35 H 3.35248 -0.802566 -1.93396 0
M  V30 36 H 3.94135 1.4147 -2.21724 0
M  V30 37 H 5.54913 1.11844 -1.42431 0
M  V30 38 H 4.60476 1.61661 0.757625 0
M  V30 39 H 4.0178 2.84084 -0.373709 0
M  V30 40 H 1.95095 1.7101 -0.778123 0
M  V30 41 H 2.16986 2.08981 0.94525 0
M  V30 42 H -2.49667 0.598023 1.55602 0
M  V30 43 H -4.09086 -0.0257482 1.17141 0
M  V30 44 H -3.6292 -1.963 2.04105 0
M  V30 45 H -2.31741 -1.23234 2.76403 0
M  V30 46 H -2.32759 0.88245 -2.1077 0
M  V30 47 H -2.10794 1.69222 -0.562026 0
M  V30 48 H -4.64421 1.56358 -0.172213 0
M  V30 49 H -3.95615 2.63214 -1.38422 0
M  V30 50 H -4.7285 1.1778 -1.99226 0
M  V30 END ATOM
M  V30 BEGIN BOND
M  V30 1 1 1 2
M  V30 2 1 2 3
M  V30 3 1 3 4
M  V30 4 1 4 5
M  V30 5 2 5 6
M  V30 6 1 5 7
M  V30 7 1 7 8
M  V30 8 1 8 9
M  V30 9 1 9 10
M  V30 10 1 8 11
M  V30 11 1 11 12
M  V30 12 1 12 13
M  V30 13 1 13 14
M  V30 14 1 14 15
M  V30 15 1 3 16
M  V30 16 1 16 17
M  V30 17 1 3 18
M  V30 18 1 18 19
M  V30 19 1 15 8
M  V30 20 1 1 20
M  V30 21 1 1 21
M  V30 22 1 1 22
M  V30 23 1 2 23
M  V30 24 1 2 24
M  V30 25 1 4 25
M  V30 26 1 7 26
M  V30 27 1 7 27
M  V30 28 1 9 28
M  V30 29 1 9 29
M  V30 30 1 10 30
M  V30 31 1 10 31
M  V30 32 1 11 32
M  V30 33 1 11 33
M  V30 34 1 12 34
M  V30 35 1 12 35
M  V30 36 1 13 36
M  V30 37 1 13 37
M  V30 38 1 14 38
M  V30 39 1 14 39
M  V30 40 1 15 40
M  V30 41 1 15 41
M  V30 42 1 16 42
M  V30 43 1 16 43
M  V30 44 1 17 44
M  V30 45 1 17 45
M  V30 46 1 18 46
M  V30 47 1 18 47
M  V30 48 1 19 48
M  V30 49 1 19 49
M  V30 50 1 19 50
M  V30 END BOND
M  V30 END CTAB
M  END
