
     RDKit          3D

  0  0  0  0  0  0  0  0  0  0999 V3000
M  V30 BEGIN CTAB
M  V30 COUNTS 49 53 0 0 0
M  V30 BEGIN ATOM
M  V30 1 N -5.47851 2.16128 -4.01115 0
M  V30 2 C -5.01321 1.48646 -2.8682 0
M  V30 3 C -3.72656 1.04089 -2.72007 0
M  V30 4 C -3.26619 0.378628 -1.58967 0
M  V30 5 C -4.10407 0.14523 -0.553042 0
M  V30 6 C -5.42805 0.581304 -0.661089 0
M  V30 7 C -5.85028 1.22589 -1.78401 0
M  V30 8 C -3.73139 -0.454246 0.726915 0
M  V30 9 C -2.49424 -0.567032 1.31939 0
M  V30 10 C -1.05571 -0.331483 1.2291 0
M  V30 11 O -0.483818 0.176821 0.270468 0
M  V30 12 C -0.369198 -0.784285 2.45989 0
M  V30 13 C -1.36037 -1.26668 3.2526 0
M  V30 14 C -1.0079 -1.74842 4.51715 0
M  V30 15 C 0.295006 -1.72895 4.92793 0
M  V30 16 C 1.30295 -1.25002 4.14354 0
M  V30 17 C 0.986662 -0.74807 2.83991 0
M  V30 18 N 1.97037 -0.405132 1.94731 0
M  V30 19 C 2.91663 -0.0752315 1.0893 0
M  V30 20 O 4.07609 0.410464 1.40541 0
M  V30 21 N 2.8204 -0.214999 -0.365991 0
M  V30 22 C 3.91113 0.188428 -1.15751 0
M  V30 23 C 4.53034 1.39513 -0.938699 0
M  V30 24 C 5.62301 1.80193 -1.67366 0
M  V30 25 C 6.11285 0.985901 -2.65637 0
M  V30 26 C 5.50306 -0.225335 -2.88782 0
M  V30 27 N 6.02031 -1.07899 -3.92697 0
M  V30 28 C 4.42106 -0.632132 -2.16126 0
M  V30 29 C -2.6509 -1.1455 2.58421 0
M  V30 30 N -3.96465 -1.36395 2.72018 0
M  V30 31 N -4.60311 -0.961656 1.63816 0
M  V30 32 H -6.48591 2.13993 -4.25591 0
M  V30 33 H -4.83257 2.69135 -4.63668 0
M  V30 34 H -3.02884 1.22093 -3.54469 0
M  V30 35 H -2.22005 0.0247461 -1.58931 0
M  V30 36 H -6.11845 0.405112 0.155219 0
M  V30 37 H -6.89592 1.57237 -1.88557 0
M  V30 38 H -1.7844 -2.12246 5.12973 0
M  V30 39 H 0.574965 -2.11175 5.93554 0
M  V30 40 H 2.32385 -1.25532 4.49326 0
M  V30 41 H 2.66305 0.247467 2.93452 0
M  V30 42 H 1.99607 -0.612933 -0.835722 0
M  V30 43 H 4.15585 2.10141 -0.170892 0
M  V30 44 H 6.07657 2.77328 -1.45738 0
M  V30 45 H 6.95936 1.27213 -3.24709 0
M  V30 46 H 6.05968 -2.09647 -3.81645 0
M  V30 47 H 6.37046 -0.659311 -4.82759 0
M  V30 48 H 3.90677 -1.57584 -2.30214 0
M  V30 49 H -5.62218 -1.01087 1.46644 0
M  V30 END ATOM
M  V30 BEGIN BOND
M  V30 1 1 1 2
M  V30 2 2 2 3
M  V30 3 1 3 4
M  V30 4 2 4 5
M  V30 5 1 5 6
M  V30 6 2 6 7
M  V30 7 1 5 8
M  V30 8 2 8 9
M  V30 9 1 9 10
M  V30 10 2 10 11
M  V30 11 1 10 12
M  V30 12 2 12 13
M  V30 13 1 13 14
M  V30 14 2 14 15
M  V30 15 1 15 16
M  V30 16 2 16 17
M  V30 17 1 17 18
M  V30 18 1 18 19
M  V30 19 2 19 20
M  V30 20 1 19 21
M  V30 21 1 21 22
M  V30 22 2 22 23
M  V30 23 1 23 24
M  V30 24 2 24 25
M  V30 25 1 25 26
M  V30 26 1 26 27
M  V30 27 2 26 28
M  V30 28 1 13 29
M  V30 29 2 29 30
M  V30 30 1 30 31
M  V30 31 1 7 2
M  V30 32 1 31 8
M  V30 33 1 29 9
M  V30 34 1 17 12
M  V30 35 1 28 22
M  V30 36 1 1 32
M  V30 37 1 1 33
M  V30 38 1 3 34
M  V30 39 1 4 35
M  V30 40 1 6 36
M  V30 41 1 7 37
M  V30 42 1 14 38
M  V30 43 1 15 39
M  V30 44 1 16 40
M  V30 45 1 18 41
M  V30 46 1 21 42
M  V30 47 1 23 43
M  V30 48 1 24 44
M  V30 49 1 25 45
M  V30 50 1 27 46
M  V30 51 1 27 47
M  V30 52 1 28 48
M  V30 53 1 31 49
M  V30 END BOND
M  V30 END CTAB
M  END
