
     RDKit          3D

  0  0  0  0  0  0  0  0  0  0999 V3000
M  V30 BEGIN CTAB
M  V30 COUNTS 53 56 0 0 0
M  V30 BEGIN ATOM
M  V30 1 N 6.90479 -1.06882 -0.223821 0
M  V30 2 C 7.0321 0.348518 -0.327794 0 CFG=1
M  V30 3 C 6.25618 0.950705 0.849697 0
M  V30 4 C 4.84581 0.487183 0.677938 0
M  V30 5 C 4.41762 -0.688064 1.24196 0
M  V30 6 C 3.1214 -1.09047 1.07005 0
M  V30 7 C 2.20203 -0.359163 0.342546 0
M  V30 8 C 2.6113 0.816009 -0.22744 0
M  V30 9 C 3.93796 1.2259 -0.0503187 0
M  V30 10 C 0.814064 -0.859865 0.200049 0
M  V30 11 N 0.467421 -2.02689 0.785081 0
M  V30 12 C -0.772996 -2.53261 0.692416 0
M  V30 13 N -1.0286 -3.76141 1.34315 0
M  V30 14 N -1.69696 -1.85006 -0.00751436 0
M  V30 15 C -1.45214 -0.681964 -0.62551 0
M  V30 16 O -2.41829 0.00643898 -1.34232 0
M  V30 17 C -3.70637 -0.504113 -1.44724 0
M  V30 18 C -4.73463 0.386462 -0.831732 0
M  V30 19 C -5.73244 -0.112558 -0.0205599 0
M  V30 20 C -6.69905 0.675768 0.565701 0
M  V30 21 C -6.68602 2.04837 0.340765 0
M  V30 22 O -7.70217 2.58179 1.00341 0
M  V30 23 C -8.38035 1.68388 1.64241 0
M  V30 24 C -7.77971 0.475191 1.3909 0
M  V30 25 C -5.69746 2.57069 -0.467269 0
M  V30 26 C -4.73213 1.75261 -1.04793 0
M  V30 27 C -4.07812 -0.841913 -2.88043 0
M  V30 28 F -4.01856 0.280592 -3.69971 0
M  V30 29 F -5.36148 -1.322 -2.96975 0
M  V30 30 F -3.24356 -1.80773 -3.39888 0
M  V30 31 C -0.147439 -0.184781 -0.507352 0
M  V30 32 C 8.41589 0.814887 -0.287045 0
M  V30 33 O 8.69438 2.16227 -0.377061 0
M  V30 34 O 9.35186 -0.00587621 -0.17046 0
M  V30 35 H 6.22037 -1.40658 -0.908985 0
M  V30 36 H 7.78783 -1.53512 -0.349925 0
M  V30 37 H 6.52367 0.748481 -1.23889 0
M  V30 38 H 6.32566 2.04532 0.855625 0
M  V30 39 H 6.65351 0.559942 1.78799 0
M  V30 40 H 5.14678 -1.26821 1.81903 0
M  V30 41 H 2.79666 -2.01204 1.51583 0
M  V30 42 H 1.92141 1.41799 -0.805041 0
M  V30 43 H 4.24002 2.14773 -0.503451 0
M  V30 44 H -0.734862 -3.90621 2.31805 0
M  V30 45 H -1.51436 -4.50087 0.814084 0
M  V30 46 H -3.76307 -1.46318 -0.893955 0
M  V30 47 H -5.75848 -1.17368 0.165055 0
M  V30 48 H -9.25628 1.91903 2.24887 0
M  V30 49 H -8.10899 -0.470137 1.78108 0
M  V30 50 H -5.69038 3.63078 -0.638807 0
M  V30 51 H -3.95486 2.15279 -1.68161 0
M  V30 52 H 0.0583358 0.739849 -0.992734 0
M  V30 53 H 8.10271 2.80515 -0.911636 0
M  V30 END ATOM
M  V30 BEGIN BOND
M  V30 1 1 1 2
M  V30 2 1 2 3
M  V30 3 1 3 4
M  V30 4 2 4 5
M  V30 5 1 5 6
M  V30 6 2 6 7
M  V30 7 1 7 8
M  V30 8 2 8 9
M  V30 9 1 7 10
M  V30 10 2 10 11
M  V30 11 1 11 12
M  V30 12 1 12 13
M  V30 13 2 12 14
M  V30 14 1 14 15
M  V30 15 1 15 16
M  V30 16 1 16 17
M  V30 17 1 17 18
M  V30 18 2 18 19
M  V30 19 1 19 20
M  V30 20 2 20 21
M  V30 21 1 21 22
M  V30 22 1 22 23
M  V30 23 2 23 24
M  V30 24 1 21 25
M  V30 25 2 25 26
M  V30 26 1 17 27
M  V30 27 1 27 28
M  V30 28 1 27 29
M  V30 29 1 27 30
M  V30 30 2 15 31
M  V30 31 1 2 32
M  V30 32 1 32 33
M  V30 33 2 32 34
M  V30 34 1 9 4
M  V30 35 1 31 10
M  V30 36 1 26 18
M  V30 37 1 24 20
M  V30 38 1 1 35
M  V30 39 1 1 36
M  V30 40 1 2 37 CFG=3
M  V30 41 1 3 38
M  V30 42 1 3 39
M  V30 43 1 5 40
M  V30 44 1 6 41
M  V30 45 1 8 42
M  V30 46 1 9 43
M  V30 47 1 13 44
M  V30 48 1 13 45
M  V30 49 1 17 46
M  V30 50 1 19 47
M  V30 51 1 23 48
M  V30 52 1 24 49
M  V30 53 1 25 50
M  V30 54 1 26 51
M  V30 55 1 31 52
M  V30 56 1 33 53
M  V30 END BOND
M  V30 END CTAB
M  END
