
     RDKit          3D

  0  0  0  0  0  0  0  0  0  0999 V3000
M  V30 BEGIN CTAB
M  V30 COUNTS 28 30 0 0 0
M  V30 BEGIN ATOM
M  V30 1 N 4.95859 -1.09441 -0.554167 0
M  V30 2 C 3.72929 -0.622912 -0.00261232 0
M  V30 3 C 2.55883 -0.822645 -0.68725 0
M  V30 4 C 1.36575 -0.382813 -0.185018 0
M  V30 5 C 1.28674 0.273524 1.01809 0
M  V30 6 O 0.121331 0.741732 1.58063 0
M  V30 7 C -1.12328 0.6212 1.02395 0
M  V30 8 C -2.21111 1.1547 1.72896 0
M  V30 9 C -3.49334 1.07509 1.23857 0
M  V30 10 C -3.77982 0.470207 0.0339886 0
M  V30 11 N -5.10587 0.392599 -0.464345 0
M  V30 12 C -2.7023 -0.0508989 -0.650644 0
M  V30 13 C -1.41313 0.0200245 -0.174614 0
M  V30 14 S -0.0983318 -0.66048 -1.09329 0
M  V30 15 O -0.28557 -2.16483 -1.16311 0
M  V30 16 O -0.041888 -0.0586994 -2.46275 0
M  V30 17 C 2.48751 0.46718 1.69946 0
M  V30 18 C 3.69566 0.0343581 1.21433 0
M  V30 19 H 5.26429 -0.810287 -1.50703 0
M  V30 20 H 5.57762 -1.7321 -0.0184433 0
M  V30 21 H 2.61087 -1.34623 -1.64997 0
M  V30 22 H -2.00692 1.63732 2.68356 0
M  V30 23 H -4.33604 1.48676 1.78171 0
M  V30 24 H -5.86543 0.0998283 0.166201 0
M  V30 25 H -5.32374 0.62573 -1.45321 0
M  V30 26 H -2.91766 -0.531126 -1.60375 0
M  V30 27 H 2.42797 0.992997 2.66436 0
M  V30 28 H 4.61996 0.184177 1.74021 0
M  V30 END ATOM
M  V30 BEGIN BOND
M  V30 1 1 1 2
M  V30 2 2 2 3
M  V30 3 1 3 4
M  V30 4 2 4 5
M  V30 5 1 5 6
M  V30 6 1 6 7
M  V30 7 2 7 8
M  V30 8 1 8 9
M  V30 9 2 9 10
M  V30 10 1 10 11
M  V30 11 1 10 12
M  V30 12 2 12 13
M  V30 13 1 13 14
M  V30 14 2 14 15
M  V30 15 2 14 16
M  V30 16 1 5 17
M  V30 17 2 17 18
M  V30 18 1 18 2
M  V30 19 1 14 4
M  V30 20 1 13 7
M  V30 21 1 1 19
M  V30 22 1 1 20
M  V30 23 1 3 21
M  V30 24 1 8 22
M  V30 25 1 9 23
M  V30 26 1 11 24
M  V30 27 1 11 25
M  V30 28 1 12 26
M  V30 29 1 17 27
M  V30 30 1 18 28
M  V30 END BOND
M  V30 END CTAB
M  END
