
     RDKit          3D

  0  0  0  0  0  0  0  0  0  0999 V3000
M  V30 BEGIN CTAB
M  V30 COUNTS 29 29 0 0 0
M  V30 BEGIN ATOM
M  V30 1 O 0.979799 -1.04143 -2.48448 0
M  V30 2 C 0.549916 0.151131 -1.9177 0
M  V30 3 C -0.0104583 -0.0638105 -0.513387 0
M  V30 4 C -0.463183 1.28942 -0.0299813 0
M  V30 5 C -1.42103 1.18358 1.13571 0
M  V30 6 C -2.61874 0.387032 0.645705 0
M  V30 7 C -2.1274 -1.03049 0.437713 0
M  V30 8 C -1.15988 -1.02949 -0.709283 0
M  V30 9 N 0.90662 -0.610364 0.395666 0
M  V30 10 C 2.0933 -0.275844 0.672001 0
M  V30 11 N 2.82018 0.797265 0.0912346 0
M  V30 12 N 2.76212 -1.05037 1.6597 0
M  V30 13 H 1.10271 -1.70181 -1.73585 0
M  V30 14 H 1.26385 0.966621 -1.97474 0
M  V30 15 H -0.343433 0.471123 -2.53196 0
M  V30 16 H 0.438356 1.82151 0.341495 0
M  V30 17 H -0.872406 1.91407 -0.855335 0
M  V30 18 H -1.68368 2.19398 1.4573 0
M  V30 19 H -0.901157 0.583487 1.91692 0
M  V30 20 H -3.03198 0.773181 -0.292467 0
M  V30 21 H -3.39768 0.381062 1.439 0
M  V30 22 H -3.01029 -1.62415 0.121516 0
M  V30 23 H -1.68171 -1.41251 1.3811 0
M  V30 24 H -0.706601 -2.04828 -0.759899 0
M  V30 25 H -1.69597 -0.858484 -1.64389 0
M  V30 26 H 3.34894 0.71462 -0.808287 0
M  V30 27 H 2.87208 1.75607 0.537225 0
M  V30 28 H 2.59559 -0.834994 2.66123 0
M  V30 29 H 3.39216 -1.80212 1.36376 0
M  V30 END ATOM
M  V30 BEGIN BOND
M  V30 1 1 1 2
M  V30 2 1 2 3
M  V30 3 1 3 4
M  V30 4 1 4 5
M  V30 5 1 5 6
M  V30 6 1 6 7
M  V30 7 1 7 8
M  V30 8 1 3 9
M  V30 9 2 9 10 CFG=2
M  V30 10 1 10 11
M  V30 11 1 10 12
M  V30 12 1 8 3
M  V30 13 1 1 13
M  V30 14 1 2 14
M  V30 15 1 2 15
M  V30 16 1 4 16
M  V30 17 1 4 17
M  V30 18 1 5 18
M  V30 19 1 5 19
M  V30 20 1 6 20
M  V30 21 1 6 21
M  V30 22 1 7 22
M  V30 23 1 7 23
M  V30 24 1 8 24
M  V30 25 1 8 25
M  V30 26 1 11 26
M  V30 27 1 11 27
M  V30 28 1 12 28
M  V30 29 1 12 29
M  V30 END BOND
M  V30 END CTAB
M  END
