
     RDKit          3D

  0  0  0  0  0  0  0  0  0  0999 V3000
M  V30 BEGIN CTAB
M  V30 COUNTS 53 54 0 0 0
M  V30 BEGIN ATOM
M  V30 1 N 5.3149 -0.0634119 -0.640133 0
M  V30 2 C 5.49943 -1.10131 0.267746 0 CFG=2
M  V30 3 C 5.67723 -2.41504 -0.441393 0
M  V30 4 O 5.85401 -3.44154 0.260597 0
M  V30 5 O 5.63711 -2.4235 -1.81468 0
M  V30 6 C 4.4518 -1.30572 1.30048 0
M  V30 7 C 3.08376 -1.62283 0.804722 0
M  V30 8 C 2.49023 -0.520077 -0.0121597 0
M  V30 9 C 2.33805 0.740371 0.73151 0
M  V30 10 N 1.78336 1.84272 0.0157976 0
M  V30 11 C 2.57575 2.7149 -0.665649 0
M  V30 12 C 2.01977 3.77454 -1.35109 0
M  V30 13 C 0.655763 3.97787 -1.36468 0
M  V30 14 C -0.182405 3.10762 -0.680295 0
M  V30 15 C 0.443936 1.99501 0.0354341 0
M  V30 16 N -0.58785 1.33807 0.589407 0
M  V30 17 C -1.77249 1.91668 0.297709 0
M  V30 18 N -1.48195 2.98253 -0.471403 0
M  V30 19 N -3.0716 1.49051 0.715777 0
M  V30 20 C -3.25414 0.324394 1.54409 0
M  V30 21 C -4.68277 0.0520896 1.86762 0
M  V30 22 C -5.52922 -0.184432 0.635588 0
M  V30 23 C -5.02599 -1.37608 -0.158335 0 CFG=2
M  V30 24 C -5.89816 -1.54697 -1.34392 0
M  V30 25 O -5.97928 -0.594023 -2.15761 0
M  V30 26 O -6.63133 -2.69199 -1.61355 0
M  V30 27 N -5.0275 -2.54547 0.689606 0
M  V30 28 H 5.26181 -0.256749 -1.60935 0
M  V30 29 H 5.50197 0.870293 -0.370412 0
M  V30 30 H 6.51412 -0.915949 0.748754 0
M  V30 31 H 6.4532 -2.76635 -2.30352 0
M  V30 32 H 4.457 -0.364215 1.93705 0
M  V30 33 H 4.81124 -2.08398 2.03546 0
M  V30 34 H 3.05932 -2.60379 0.250109 0
M  V30 35 H 2.43901 -1.73718 1.74172 0
M  V30 36 H 1.41174 -0.90411 -0.223409 0
M  V30 37 H 2.9379 -0.510237 -0.995587 0
M  V30 38 H 3.27916 1.06867 1.1928 0
M  V30 39 H 1.6584 0.535587 1.6162 0
M  V30 40 H 3.63509 2.50645 -0.619907 0
M  V30 41 H 2.67384 4.4604 -1.88986 0
M  V30 42 H 0.209644 4.80441 -1.89818 0
M  V30 43 H -3.89638 2.03587 0.4136 0
M  V30 44 H -2.83803 -0.58993 1.04805 0
M  V30 45 H -2.67439 0.453954 2.4675 0
M  V30 46 H -5.13862 0.904355 2.41315 0
M  V30 47 H -4.74652 -0.840899 2.50687 0
M  V30 48 H -5.42515 0.704155 -0.00670252 0
M  V30 49 H -6.59849 -0.274173 0.899337 0
M  V30 50 H -4.01514 -1.12804 -0.53839 0
M  V30 51 H -7.44802 -2.66034 -2.18701 0
M  V30 52 H -4.25599 -2.49935 1.36945 0
M  V30 53 H -5.96709 -2.63374 1.11254 0
M  V30 END ATOM
M  V30 BEGIN BOND
M  V30 1 1 1 2
M  V30 2 1 2 3
M  V30 3 2 3 4
M  V30 4 1 3 5
M  V30 5 1 2 6
M  V30 6 1 6 7
M  V30 7 1 7 8
M  V30 8 1 8 9
M  V30 9 1 9 10
M  V30 10 1 10 11
M  V30 11 2 11 12
M  V30 12 1 12 13
M  V30 13 2 13 14
M  V30 14 1 14 15
M  V30 15 2 15 16
M  V30 16 1 16 17
M  V30 17 2 17 18
M  V30 18 1 17 19
M  V30 19 1 19 20
M  V30 20 1 20 21
M  V30 21 1 21 22
M  V30 22 1 22 23
M  V30 23 1 23 24
M  V30 24 2 24 25
M  V30 25 1 24 26
M  V30 26 1 23 27
M  V30 27 1 15 10
M  V30 28 1 18 14
M  V30 29 1 1 28
M  V30 30 1 1 29
M  V30 31 1 2 30 CFG=1
M  V30 32 1 5 31
M  V30 33 1 6 32
M  V30 34 1 6 33
M  V30 35 1 7 34
M  V30 36 1 7 35
M  V30 37 1 8 36
M  V30 38 1 8 37
M  V30 39 1 9 38
M  V30 40 1 9 39
M  V30 41 1 11 40
M  V30 42 1 12 41
M  V30 43 1 13 42
M  V30 44 1 19 43
M  V30 45 1 20 44
M  V30 46 1 20 45
M  V30 47 1 21 46
M  V30 48 1 21 47
M  V30 49 1 22 48
M  V30 50 1 22 49
M  V30 51 1 23 50 CFG=3
M  V30 52 1 26 51
M  V30 53 1 27 52
M  V30 54 1 27 53
M  V30 END BOND
M  V30 END CTAB
M  END
