
     RDKit          3D

  0  0  0  0  0  0  0  0  0  0999 V3000
M  V30 BEGIN CTAB
M  V30 COUNTS 88 93 0 0 0
M  V30 BEGIN ATOM
M  V30 1 C -2.54207 0.461376 3.60738 0
M  V30 2 O -3.35517 0.471444 2.46292 0
M  V30 3 C -2.72467 0.626134 1.21737 0
M  V30 4 C -1.36309 0.764093 1.1057 0
M  V30 5 C -0.769681 0.914409 -0.127767 0
M  V30 6 C -1.56928 0.923932 -1.25156 0
M  V30 7 C -2.95062 0.782891 -1.12396 0
M  V30 8 C -3.55456 0.632271 0.101154 0
M  V30 9 N -4.96708 0.485099 0.272945 0
M  V30 10 N -5.81378 0.81138 -0.58406 0
M  V30 11 C -7.21407 0.696328 -0.485022 0
M  V30 12 C -7.97166 1.82153 -0.244254 0
M  V30 13 C -9.35349 1.77757 -0.137132 0
M  V30 14 C -10.0112 0.578484 -0.272941 0
M  V30 15 C -11.382 0.579265 -0.161054 0
M  V30 16 C -12.043 -0.637859 -0.300901 0
M  V30 17 C -11.3197 -1.81025 -0.546276 0
M  V30 18 C -9.94904 -1.76148 -0.650231 0
M  V30 19 N -9.22974 -2.95137 -0.898298 0
M  V30 20 C -9.27429 -0.574134 -0.51625 0
M  V30 21 C -7.88097 -0.512234 -0.621279 0
M  V30 22 O -7.17435 -1.68194 -0.86472 0
M  V30 23 S -12.2096 -3.29018 -0.708048 0
M  V30 24 O -11.7731 -4.43372 0.443777 0
M  V30 25 O -13.6776 -3.01989 -0.604242 0
M  V30 26 O -11.9824 -3.85067 -2.10509 0
M  V30 27 S -12.2929 2.05957 0.148192 0
M  V30 28 O -13.9202 1.67376 0.219857 0
M  V30 29 O -12.099 3.05369 -0.962766 0
M  V30 30 O -11.8892 2.63462 1.48411 0
M  V30 31 C 0.684898 1.05734 -0.186043 0
M  V30 32 C 1.33514 1.79325 -1.15514 0
M  V30 33 C 2.70525 1.9047 -1.17575 0
M  V30 34 C 3.48597 1.28535 -0.228464 0
M  V30 35 C 2.85144 0.544095 0.749486 0
M  V30 36 O 3.65302 -0.0761984 1.69963 0
M  V30 37 C 2.99835 -0.838645 2.70688 0
M  V30 38 C 1.47741 0.440306 0.759033 0
M  V30 39 N 4.92051 1.40073 -0.24513 0
M  V30 40 N 5.68682 0.493538 -0.688824 0
M  V30 41 C 7.11256 0.643405 -0.689848 0
M  V30 42 C 7.72707 1.84638 -0.968351 0
M  V30 43 C 9.09913 1.99211 -0.968882 0
M  V30 44 C 9.93253 0.909386 -0.682808 0
M  V30 45 C 11.2928 1.0574 -0.684304 0
M  V30 46 C 12.0804 -0.0343356 -0.397278 0
M  V30 47 C 11.472 -1.2522 -0.114858 0
M  V30 48 C 10.1013 -1.38295 -0.117843 0
M  V30 49 N 9.50908 -2.63739 0.174339 0
M  V30 50 C 9.29926 -0.301077 -0.402899 0
M  V30 51 C 7.92679 -0.433046 -0.405701 0
M  V30 52 O 7.30451 -1.65095 -0.123697 0
M  V30 53 S 12.4725 -2.64612 0.250522 0
M  V30 54 O 12.1369 -3.83156 -0.909247 0
M  V30 55 O 13.9117 -2.28764 0.140812 0
M  V30 56 O 12.1177 -3.17421 1.61078 0
M  V30 57 S 12.0532 2.5946 -1.0398 0
M  V30 58 O 11.5265 3.70802 0.103353 0
M  V30 59 O 11.758 3.04043 -2.44018 0
M  V30 60 O 13.5405 2.47003 -0.917496 0
M  V30 61 H -3.16542 0.358049 4.50404 0
M  V30 62 H -1.93124 1.39777 3.59303 0
M  V30 63 H -1.8606 -0.425945 3.53907 0
M  V30 64 H -0.764242 0.752548 2.01167 0
M  V30 65 H -1.11926 1.04065 -2.22438 0
M  V30 66 H -3.58697 0.78958 -2.01085 0
M  V30 67 H -7.48235 2.801 -0.130081 0
M  V30 68 H -9.87367 2.71315 0.0541345 0
M  V30 69 H -13.1213 -0.671858 -0.218655 0
M  V30 70 H -8.77025 -3.47634 -0.111517 0
M  V30 71 H -9.17662 -3.28177 -1.89327 0
M  V30 72 H -6.18316 -1.63289 -0.938729 0
M  V30 73 H -10.8314 -4.64861 0.309716 0
M  V30 74 H -14.2954 1.70839 1.1196 0
M  V30 75 H 0.709089 2.2895 -1.91324 0
M  V30 76 H 3.18533 2.48569 -1.94425 0
M  V30 77 H 3.743 -1.20774 3.43627 0
M  V30 78 H 2.22515 -0.219387 3.23113 0
M  V30 79 H 2.52741 -1.69378 2.21842 0
M  V30 80 H 1.00719 -0.159428 1.55414 0
M  V30 81 H 7.09797 2.69756 -1.19264 0
M  V30 82 H 9.57251 2.95166 -1.19183 0
M  V30 83 H 13.1715 0.0199145 -0.382517 0
M  V30 84 H 9.5094 -3.37202 -0.565605 0
M  V30 85 H 9.07518 -2.83034 1.11868 0
M  V30 86 H 6.31851 -1.75936 -0.121689 0
M  V30 87 H 12.7379 -3.70413 -1.70817 0
M  V30 88 H 11.3661 3.21926 0.955346 0
M  V30 END ATOM
M  V30 BEGIN BOND
M  V30 1 1 1 2
M  V30 2 1 2 3
M  V30 3 2 3 4
M  V30 4 1 4 5
M  V30 5 2 5 6
M  V30 6 1 6 7
M  V30 7 2 7 8
M  V30 8 1 8 9
M  V30 9 2 9 10
M  V30 10 1 10 11
M  V30 11 2 11 12
M  V30 12 1 12 13
M  V30 13 2 13 14
M  V30 14 1 14 15
M  V30 15 2 15 16
M  V30 16 1 16 17
M  V30 17 2 17 18
M  V30 18 1 18 19
M  V30 19 1 18 20
M  V30 20 2 20 21
M  V30 21 1 21 22
M  V30 22 1 17 23
M  V30 23 1 23 24
M  V30 24 2 23 25
M  V30 25 2 23 26
M  V30 26 1 15 27
M  V30 27 1 27 28
M  V30 28 2 27 29
M  V30 29 2 27 30
M  V30 30 1 5 31
M  V30 31 2 31 32
M  V30 32 1 32 33
M  V30 33 2 33 34
M  V30 34 1 34 35
M  V30 35 1 35 36
M  V30 36 1 36 37
M  V30 37 2 35 38
M  V30 38 1 34 39
M  V30 39 2 39 40
M  V30 40 1 40 41
M  V30 41 2 41 42
M  V30 42 1 42 43
M  V30 43 2 43 44
M  V30 44 1 44 45
M  V30 45 2 45 46
M  V30 46 1 46 47
M  V30 47 2 47 48
M  V30 48 1 48 49
M  V30 49 1 48 50
M  V30 50 2 50 51
M  V30 51 1 51 52
M  V30 52 1 47 53
M  V30 53 1 53 54
M  V30 54 2 53 55
M  V30 55 2 53 56
M  V30 56 1 45 57
M  V30 57 1 57 58
M  V30 58 2 57 59
M  V30 59 2 57 60
M  V30 60 1 8 3
M  V30 61 1 21 11
M  V30 62 1 38 31
M  V30 63 1 51 41
M  V30 64 1 20 14
M  V30 65 1 50 44
M  V30 66 1 1 61
M  V30 67 1 1 62
M  V30 68 1 1 63
M  V30 69 1 4 64
M  V30 70 1 6 65
M  V30 71 1 7 66
M  V30 72 1 12 67
M  V30 73 1 13 68
M  V30 74 1 16 69
M  V30 75 1 19 70
M  V30 76 1 19 71
M  V30 77 1 22 72
M  V30 78 1 24 73
M  V30 79 1 28 74
M  V30 80 1 32 75
M  V30 81 1 33 76
M  V30 82 1 37 77
M  V30 83 1 37 78
M  V30 84 1 37 79
M  V30 85 1 38 80
M  V30 86 1 42 81
M  V30 87 1 43 82
M  V30 88 1 46 83
M  V30 89 1 49 84
M  V30 90 1 49 85
M  V30 91 1 52 86
M  V30 92 1 54 87
M  V30 93 1 58 88
M  V30 END BOND
M  V30 END CTAB
M  END
