
     RDKit          3D

  0  0  0  0  0  0  0  0  0  0999 V3000
M  V30 BEGIN CTAB
M  V30 COUNTS 26 25 0 0 0
M  V30 BEGIN ATOM
M  V30 1 N 4.66304 0.946276 0.472781 0
M  V30 2 C 3.45257 0.187378 0.297617 0
M  V30 3 C 2.29709 1.18012 0.295259 0
M  V30 4 S 0.797986 0.20204 0.644131 0
M  V30 5 C 0.635404 -1.00115 -0.717454 0
M  V30 6 C -0.597471 -1.83841 -0.465808 0
M  V30 7 S -1.69906 -1.08797 0.74753 0
M  V30 8 C -2.33064 0.468904 0.0649617 0
M  V30 9 C -3.52808 0.246133 -0.819315 0
M  V30 10 N -4.71519 0.524704 -0.0526668 0
M  V30 11 H 5.05796 0.903968 1.42801 0
M  V30 12 H 5.34987 0.840856 -0.292299 0
M  V30 13 H 3.30448 -0.555454 1.11118 0
M  V30 14 H 3.44503 -0.357401 -0.658507 0
M  V30 15 H 2.46281 1.94288 1.07432 0
M  V30 16 H 2.20091 1.62857 -0.7129 0
M  V30 17 H 0.546272 -0.442628 -1.66612 0
M  V30 18 H 1.54782 -1.63932 -0.741492 0
M  V30 19 H -1.17306 -1.92624 -1.41918 0
M  V30 20 H -0.338633 -2.86449 -0.114541 0
M  V30 21 H -1.53307 0.95581 -0.516613 0
M  V30 22 H -2.54282 1.13054 0.931229 0
M  V30 23 H -3.55803 -0.798829 -1.19054 0
M  V30 24 H -3.53305 0.891221 -1.7196 0
M  V30 25 H -4.6239 0.255267 0.946147 0
M  V30 26 H -5.58823 0.20723 -0.507953 0
M  V30 END ATOM
M  V30 BEGIN BOND
M  V30 1 1 1 2
M  V30 2 1 2 3
M  V30 3 1 3 4
M  V30 4 1 4 5
M  V30 5 1 5 6
M  V30 6 1 6 7
M  V30 7 1 7 8
M  V30 8 1 8 9
M  V30 9 1 9 10
M  V30 10 1 1 11
M  V30 11 1 1 12
M  V30 12 1 2 13
M  V30 13 1 2 14
M  V30 14 1 3 15
M  V30 15 1 3 16
M  V30 16 1 5 17
M  V30 17 1 5 18
M  V30 18 1 6 19
M  V30 19 1 6 20
M  V30 20 1 8 21
M  V30 21 1 8 22
M  V30 22 1 9 23
M  V30 23 1 9 24
M  V30 24 1 10 25
M  V30 25 1 10 26
M  V30 END BOND
M  V30 END CTAB
M  END
