
     RDKit          3D

  0  0  0  0  0  0  0  0  0  0999 V3000
M  V30 BEGIN CTAB
M  V30 COUNTS 23 24 0 0 0
M  V30 BEGIN ATOM
M  V30 1 N 1.27607 1.89613 0.414338 0
M  V30 2 C 1.23989 0.512776 0.0699048 0
M  V30 3 C 2.45792 -0.141665 -0.0839077 0
M  V30 4 N 3.68494 0.541831 0.0951954 0
M  V30 5 C 2.46301 -1.48306 -0.417585 0
M  V30 6 C 1.25294 -2.11401 -0.583495 0
M  V30 7 N 0.101297 -1.46969 -0.431707 0
M  V30 8 C 0.0519862 -0.165062 -0.107506 0
M  V30 9 O -1.16278 0.488272 0.0460543 0
M  V30 10 C -2.37585 -0.197579 -0.133573 0
M  V30 11 C -3.61596 0.496123 -0.521797 0
M  V30 12 C -3.39882 0.0673887 0.947577 0
M  V30 13 H 1.70858 2.5646 -0.279215 0
M  V30 14 H 0.909019 2.28326 1.29231 0
M  V30 15 H 3.72856 1.41486 0.655522 0
M  V30 16 H 4.54141 0.159088 -0.340995 0
M  V30 17 H 3.39023 -2.04306 -0.55005 0
M  V30 18 H 1.27741 -3.16325 -0.844349 0
M  V30 19 H -2.28534 -1.27425 -0.400728 0
M  V30 20 H -4.36605 -0.0976212 -1.09406 0
M  V30 21 H -3.60847 1.59701 -0.702775 0
M  V30 22 H -3.22939 0.881928 1.67654 0
M  V30 23 H -4.04059 -0.754027 1.2943 0
M  V30 END ATOM
M  V30 BEGIN BOND
M  V30 1 1 1 2
M  V30 2 2 2 3
M  V30 3 1 3 4
M  V30 4 1 3 5
M  V30 5 2 5 6
M  V30 6 1 6 7
M  V30 7 2 7 8
M  V30 8 1 8 9
M  V30 9 1 9 10
M  V30 10 1 10 11
M  V30 11 1 11 12
M  V30 12 1 8 2
M  V30 13 1 12 10
M  V30 14 1 1 13
M  V30 15 1 1 14
M  V30 16 1 4 15
M  V30 17 1 4 16
M  V30 18 1 5 17
M  V30 19 1 6 18
M  V30 20 1 10 19
M  V30 21 1 11 20
M  V30 22 1 11 21
M  V30 23 1 12 22
M  V30 24 1 12 23
M  V30 END BOND
M  V30 END CTAB
M  END
