
     RDKit          3D

  0  0  0  0  0  0  0  0  0  0999 V3000
M  V30 BEGIN CTAB
M  V30 COUNTS 19 19 0 0 0
M  V30 BEGIN ATOM
M  V30 1 N -2.02118 -2.4505 0.0136665 0
M  V30 2 N -2.23122 -1.09326 -0.164822 0
M  V30 3 C -1.16167 -0.146455 -0.14955 0
M  V30 4 N 0.10894 -0.516419 0.0384921 0
M  V30 5 C 1.11306 0.371074 0.0529968 0
M  V30 6 O 2.43045 0.0067557 0.245771 0
M  V30 7 C 2.88849 -1.29318 0.446138 0
M  V30 8 N 0.820662 1.66594 -0.127773 0
M  V30 9 C -0.445081 2.1027 -0.322847 0
M  V30 10 N -1.41766 1.1597 -0.327417 0
M  V30 11 N -0.774504 3.4719 -0.516304 0
M  V30 12 H -1.08937 -2.78833 -0.241262 0
M  V30 13 H -2.41056 -2.83263 0.894044 0
M  V30 14 H -3.20896 -0.772364 -0.3137 0
M  V30 15 H 4.01027 -1.27588 0.356792 0
M  V30 16 H 2.69454 -1.56424 1.51743 0
M  V30 17 H 2.51504 -2.03371 -0.264328 0
M  V30 18 H -0.527204 4.01207 -1.37105 0
M  V30 19 H -1.29404 3.97681 0.23372 0
M  V30 END ATOM
M  V30 BEGIN BOND
M  V30 1 1 1 2
M  V30 2 1 2 3
M  V30 3 2 3 4
M  V30 4 1 4 5
M  V30 5 1 5 6
M  V30 6 1 6 7
M  V30 7 2 5 8
M  V30 8 1 8 9
M  V30 9 2 9 10
M  V30 10 1 9 11
M  V30 11 1 10 3
M  V30 12 1 1 12
M  V30 13 1 1 13
M  V30 14 1 2 14
M  V30 15 1 7 15
M  V30 16 1 7 16
M  V30 17 1 7 17
M  V30 18 1 11 18
M  V30 19 1 11 19
M  V30 END BOND
M  V30 END CTAB
M  END
