
     RDKit          3D

  0  0  0  0  0  0  0  0  0  0999 V3000
M  V30 BEGIN CTAB
M  V30 COUNTS 40 41 0 0 0
M  V30 BEGIN ATOM
M  V30 1 N -2.61768 -2.29951 -0.241141 0
M  V30 2 C -2.83861 -0.943572 0.246419 0
M  V30 3 C -3.62214 -0.219643 -0.776853 0
M  V30 4 C -3.42729 1.26581 -0.842914 0
M  V30 5 C -1.93063 1.50665 -0.839385 0
M  V30 6 C -1.42821 1.12553 0.52493 0
M  V30 7 C -1.57727 -0.353416 0.71117 0
M  V30 8 C -0.303968 -0.971566 0.107333 0
M  V30 9 N 0.404223 0.138938 -0.346515 0
M  V30 10 C 0.080173 1.26015 0.517874 0
M  V30 11 C 1.65214 0.138868 -0.893184 0
M  V30 12 C 2.87389 -0.064175 -0.0945242 0
M  V30 13 N 2.95202 0.988889 0.929187 0
M  V30 14 C 3.19513 -1.38925 0.465024 0
M  V30 15 C 4.07791 0.279604 -1.03495 0
M  V30 16 H -3.53093 -2.82289 -0.29767 0
M  V30 17 H -1.92608 -2.8313 0.346195 0
M  V30 18 H -3.50773 -1.08147 1.15 0
M  V30 19 H -3.4457 -0.645734 -1.78149 0
M  V30 20 H -4.72419 -0.38009 -0.589841 0
M  V30 21 H -3.82718 1.62697 -1.81024 0
M  V30 22 H -3.87743 1.82622 -0.0136354 0
M  V30 23 H -1.69414 2.57092 -1.04108 0
M  V30 24 H -1.48899 0.829395 -1.6107 0
M  V30 25 H -1.92262 1.73189 1.28253 0
M  V30 26 H -1.45575 -0.516902 1.82383 0
M  V30 27 H -0.64908 -1.64075 -0.712133 0
M  V30 28 H 0.244647 -1.5447 0.855718 0
M  V30 29 H 0.429873 0.993412 1.53189 0
M  V30 30 H 0.371566 2.23176 0.145678 0
M  V30 31 H 1.66236 -0.62813 -1.74023 0
M  V30 32 H 1.80968 1.10813 -1.47815 0
M  V30 33 H 3.91305 0.935404 1.32167 0
M  V30 34 H 2.90463 1.89273 0.354934 0
M  V30 35 H 2.42372 -1.9611 0.954179 0
M  V30 36 H 3.77628 -2.00546 -0.285037 0
M  V30 37 H 3.99811 -1.19351 1.26671 0
M  V30 38 H 4.26131 -0.557393 -1.72992 0
M  V30 39 H 4.94698 0.406529 -0.338427 0
M  V30 40 H 3.81794 1.19275 -1.56137 0
M  V30 END ATOM
M  V30 BEGIN BOND
M  V30 1 1 1 2
M  V30 2 1 2 3
M  V30 3 1 3 4
M  V30 4 1 4 5
M  V30 5 1 5 6
M  V30 6 1 6 7
M  V30 7 1 7 8
M  V30 8 1 8 9
M  V30 9 1 9 10
M  V30 10 1 9 11
M  V30 11 1 11 12
M  V30 12 1 12 13
M  V30 13 1 12 14
M  V30 14 1 12 15
M  V30 15 1 7 2
M  V30 16 1 10 6
M  V30 17 1 1 16
M  V30 18 1 1 17
M  V30 19 1 2 18
M  V30 20 1 3 19
M  V30 21 1 3 20
M  V30 22 1 4 21
M  V30 23 1 4 22
M  V30 24 1 5 23
M  V30 25 1 5 24
M  V30 26 1 6 25
M  V30 27 1 7 26
M  V30 28 1 8 27
M  V30 29 1 8 28
M  V30 30 1 10 29
M  V30 31 1 10 30
M  V30 32 1 11 31
M  V30 33 1 11 32
M  V30 34 1 13 33
M  V30 35 1 13 34
M  V30 36 1 14 35
M  V30 37 1 14 36
M  V30 38 1 14 37
M  V30 39 1 15 38
M  V30 40 1 15 39
M  V30 41 1 15 40
M  V30 END BOND
M  V30 END CTAB
M  END
