
     RDKit          3D

  0  0  0  0  0  0  0  0  0  0999 V3000
M  V30 BEGIN CTAB
M  V30 COUNTS 35 36 0 0 0
M  V30 BEGIN ATOM
M  V30 1 O 1.23566 1.57342 1.11897 0
M  V30 2 C 1.11021 1.4578 -0.105422 0
M  V30 3 N 2.0206 0.798217 -0.92356 0
M  V30 4 C 3.20276 0.164613 -0.539969 0
M  V30 5 C 3.6947 0.072114 0.72243 0
M  V30 6 C 4.88037 -0.575289 1.04775 0
M  V30 7 C 5.60643 -1.16015 0.034001 0
M  V30 8 C 5.15603 -1.09591 -1.25103 0
M  V30 9 C 3.98608 -0.453091 -1.54365 0
M  V30 10 F 3.52864 -0.384514 -2.83551 0
M  V30 11 Cl 7.103 -1.98586 0.395483 0
M  V30 12 C -0.140044 2.10155 -0.673859 0
M  V30 13 C -0.939747 2.69721 0.446419 0
M  V30 14 S -1.38832 1.36903 1.59382 0
M  V30 15 C -2.53997 0.284172 0.764854 0
M  V30 16 N -2.96767 0.494302 -0.491861 0
M  V30 17 C -3.82848 -0.29837 -1.14468 0
M  V30 18 N -4.2348 -0.00620796 -2.47693 0
M  V30 19 C -4.3021 -1.40858 -0.463651 0
M  V30 20 C -3.89562 -1.67133 0.827445 0
M  V30 21 N -3.03162 -0.816144 1.39124 0
M  V30 22 N -4.41022 -2.82635 1.48489 0
M  V30 23 H 1.76633 0.78642 -1.96792 0
M  V30 24 H 3.15094 0.521766 1.54637 0
M  V30 25 H 5.19847 -0.600146 2.08761 0
M  V30 26 H 5.72677 -1.55502 -2.0417 0
M  V30 27 H -0.663416 1.31614 -1.24175 0
M  V30 28 H 0.150431 2.8757 -1.41387 0
M  V30 29 H -0.426269 3.51773 0.959916 0
M  V30 30 H -1.86039 3.14937 -0.021993 0
M  V30 31 H -3.88323 0.863018 -2.93248 0
M  V30 32 H -4.86039 -0.615167 -3.00786 0
M  V30 33 H -4.99912 -2.07667 -0.951758 0
M  V30 34 H -3.76781 -3.37585 2.09818 0
M  V30 35 H -5.3782 -3.13794 1.38149 0
M  V30 END ATOM
M  V30 BEGIN BOND
M  V30 1 2 1 2
M  V30 2 1 2 3
M  V30 3 1 3 4
M  V30 4 2 4 5
M  V30 5 1 5 6
M  V30 6 2 6 7
M  V30 7 1 7 8
M  V30 8 2 8 9
M  V30 9 1 9 10
M  V30 10 1 7 11
M  V30 11 1 2 12
M  V30 12 1 12 13
M  V30 13 1 13 14
M  V30 14 1 14 15
M  V30 15 2 15 16
M  V30 16 1 16 17
M  V30 17 1 17 18
M  V30 18 2 17 19
M  V30 19 1 19 20
M  V30 20 2 20 21
M  V30 21 1 20 22
M  V30 22 1 9 4
M  V30 23 1 21 15
M  V30 24 1 3 23
M  V30 25 1 5 24
M  V30 26 1 6 25
M  V30 27 1 8 26
M  V30 28 1 12 27
M  V30 29 1 12 28
M  V30 30 1 13 29
M  V30 31 1 13 30
M  V30 32 1 18 31
M  V30 33 1 18 32
M  V30 34 1 19 33
M  V30 35 1 22 34
M  V30 36 1 22 35
M  V30 END BOND
M  V30 END CTAB
M  END
