
     RDKit          3D

  0  0  0  0  0  0  0  0  0  0999 V3000
M  V30 BEGIN CTAB
M  V30 COUNTS 29 30 0 0 0
M  V30 BEGIN ATOM
M  V30 1 N 2.24551 1.51871 -0.386609 0
M  V30 2 C 1.33225 0.367673 -0.544764 0
M  V30 3 C -0.0591633 0.772944 -0.617985 0
M  V30 4 C -1.16737 0.094198 -0.0282157 0
M  V30 5 C -1.3177 -0.21482 1.33486 0
M  V30 6 N -2.4901 -0.682755 1.84151 0
M  V30 7 C -3.55205 -0.890985 1.13702 0
M  V30 8 C -3.47475 -0.605255 -0.238317 0
M  V30 9 C -2.29094 -0.12602 -0.772417 0
M  V30 10 N -2.25378 0.0318397 -2.15483 0
M  V30 11 O -0.458385 1.67154 -1.64612 0
M  V30 12 C 1.69754 -0.661905 0.479763 0
M  V30 13 C 3.07825 -1.24042 0.344205 0
M  V30 14 C 2.7547 -0.333741 1.46601 0
M  V30 15 H 1.89228 2.10317 0.40054 0
M  V30 16 H 2.42052 2.0101 -1.25985 0
M  V30 17 H 1.73141 -0.107167 -1.51879 0
M  V30 18 H 0.0255168 1.69851 0.247221 0
M  V30 19 H -0.500813 -0.0409629 2.01582 0
M  V30 20 H -4.50421 -1.28423 1.51865 0
M  V30 21 H -4.32037 -0.758629 -0.873914 0
M  V30 22 H -2.52766 0.775351 -2.79467 0
M  V30 23 H -1.84451 -0.829873 -2.68058 0
M  V30 24 H -0.105438 1.51213 -2.51332 0
M  V30 25 H 0.892973 -1.41138 0.690515 0
M  V30 26 H 3.70238 -0.880408 -0.476682 0
M  V30 27 H 3.10964 -2.3516 0.449666 0
M  V30 28 H 3.19894 0.684212 1.42095 0
M  V30 29 H 2.78532 -0.820233 2.46016 0
M  V30 END ATOM
M  V30 BEGIN BOND
M  V30 1 1 1 2
M  V30 2 1 2 3
M  V30 3 1 3 4
M  V30 4 2 4 5
M  V30 5 1 5 6
M  V30 6 2 6 7
M  V30 7 1 7 8
M  V30 8 2 8 9
M  V30 9 1 9 10
M  V30 10 1 3 11
M  V30 11 1 2 12
M  V30 12 1 12 13
M  V30 13 1 13 14
M  V30 14 1 9 4
M  V30 15 1 14 12
M  V30 16 1 1 15
M  V30 17 1 1 16
M  V30 18 1 2 17
M  V30 19 1 3 18
M  V30 20 1 5 19
M  V30 21 1 7 20
M  V30 22 1 8 21
M  V30 23 1 10 22
M  V30 24 1 10 23
M  V30 25 1 11 24
M  V30 26 1 12 25
M  V30 27 1 13 26
M  V30 28 1 13 27
M  V30 29 1 14 28
M  V30 30 1 14 29
M  V30 END BOND
M  V30 END CTAB
M  END
