
     RDKit          3D

  0  0  0  0  0  0  0  0  0  0999 V3000
M  V30 BEGIN CTAB
M  V30 COUNTS 63 62 0 0 0
M  V30 BEGIN ATOM
M  V30 1 C -1.2714 0.054175 1.16463 0 CFG=2
M  V30 2 C -2.07934 -1.15162 0.728626 0
M  V30 3 C -1.22611 -2.39121 0.615407 0
M  V30 4 C -2.08131 -3.59177 0.201924 0
M  V30 5 C -1.19634 -4.80797 0.0942904 0
M  V30 6 N -1.94994 -5.98254 -0.294295 0
M  V30 7 N -2.12883 1.23064 1.2533 0
M  V30 8 C -3.00367 1.68706 0.245041 0
M  V30 9 O -3.18425 1.17829 -0.877443 0
M  V30 10 O -3.76244 2.82297 0.495662 0
M  V30 11 C -4.66975 3.43422 -0.335126 0
M  V30 12 C -5.23728 4.65147 0.411751 0
M  V30 13 C -5.84194 2.52978 -0.628769 0
M  V30 14 C -4.13367 3.95553 -1.63498 0
M  V30 15 C -0.0792398 0.30526 0.344477 0
M  V30 16 O -0.113523 1.21275 -0.551406 0
M  V30 17 N 1.13346 -0.435693 0.521195 0
M  V30 18 C 2.29277 -0.138255 -0.326134 0 CFG=1
M  V30 19 C 3.2586 0.61632 0.582284 0
M  V30 20 C 4.51628 1.01635 -0.0882161 0
M  V30 21 C 5.3794 1.8068 0.860915 0
M  V30 22 C 5.72372 0.998614 2.08244 0
M  V30 23 N 6.42922 -0.20316 1.70109 0
M  V30 24 C 2.84553 -1.40182 -0.824144 0
M  V30 25 O 2.37265 -2.52203 -0.433714 0
M  V30 26 O 3.8824 -1.47758 -1.7252 0
M  V30 27 C 4.38615 -2.71578 -2.1838 0
M  V30 28 H -0.928455 -0.21002 2.19736 0
M  V30 29 H -2.60771 -1.01229 -0.2146 0
M  V30 30 H -2.83106 -1.36667 1.54036 0
M  V30 31 H -0.448463 -2.26822 -0.189802 0
M  V30 32 H -0.69651 -2.645 1.54288 0
M  V30 33 H -2.5242 -3.33781 -0.777934 0
M  V30 34 H -2.87313 -3.78566 0.93637 0
M  V30 35 H -0.405546 -4.61295 -0.644596 0
M  V30 36 H -0.687729 -4.97905 1.07519 0
M  V30 37 H -2.71317 -5.66706 -0.912442 0
M  V30 38 H -2.37215 -6.37998 0.561851 0
M  V30 39 H -2.07771 1.78144 2.16847 0
M  V30 40 H -4.37332 5.05572 1.01367 0
M  V30 41 H -5.63013 5.41252 -0.273843 0
M  V30 42 H -5.98885 4.24558 1.11925 0
M  V30 43 H -6.68275 3.19166 -0.971639 0
M  V30 44 H -6.14845 2.06739 0.340466 0
M  V30 45 H -5.62822 1.76266 -1.39408 0
M  V30 46 H -4.87859 4.72889 -1.99428 0
M  V30 47 H -4.12253 3.19035 -2.45039 0
M  V30 48 H -3.17552 4.50595 -1.53864 0
M  V30 49 H 1.22153 -1.17515 1.23343 0
M  V30 50 H 1.98624 0.525704 -1.15331 0
M  V30 51 H 2.7096 1.53443 0.890495 0
M  V30 52 H 3.46495 -0.0326228 1.46806 0
M  V30 53 H 5.07578 0.118337 -0.463551 0
M  V30 54 H 4.27623 1.65753 -0.976403 0
M  V30 55 H 6.33028 2.10219 0.327391 0
M  V30 56 H 4.80224 2.71868 1.1352 0
M  V30 57 H 4.83206 0.757148 2.67185 0
M  V30 58 H 6.46372 1.59574 2.71117 0
M  V30 59 H 6.96228 -0.012161 0.827892 0
M  V30 60 H 5.8041 -1.01625 1.63905 0
M  V30 61 H 3.63379 -3.51958 -1.971 0
M  V30 62 H 5.3195 -2.93161 -1.62274 0
M  V30 63 H 4.65073 -2.68064 -3.2658 0
M  V30 END ATOM
M  V30 BEGIN BOND
M  V30 1 1 1 2
M  V30 2 1 2 3
M  V30 3 1 3 4
M  V30 4 1 4 5
M  V30 5 1 5 6
M  V30 6 1 1 7
M  V30 7 1 7 8
M  V30 8 2 8 9
M  V30 9 1 8 10
M  V30 10 1 10 11
M  V30 11 1 11 12
M  V30 12 1 11 13
M  V30 13 1 11 14
M  V30 14 1 1 15
M  V30 15 2 15 16
M  V30 16 1 15 17
M  V30 17 1 17 18
M  V30 18 1 18 19
M  V30 19 1 19 20
M  V30 20 1 20 21
M  V30 21 1 21 22
M  V30 22 1 22 23
M  V30 23 1 18 24
M  V30 24 2 24 25
M  V30 25 1 24 26
M  V30 26 1 26 27
M  V30 27 1 1 28 CFG=1
M  V30 28 1 2 29
M  V30 29 1 2 30
M  V30 30 1 3 31
M  V30 31 1 3 32
M  V30 32 1 4 33
M  V30 33 1 4 34
M  V30 34 1 5 35
M  V30 35 1 5 36
M  V30 36 1 6 37
M  V30 37 1 6 38
M  V30 38 1 7 39
M  V30 39 1 12 40
M  V30 40 1 12 41
M  V30 41 1 12 42
M  V30 42 1 13 43
M  V30 43 1 13 44
M  V30 44 1 13 45
M  V30 45 1 14 46
M  V30 46 1 14 47
M  V30 47 1 14 48
M  V30 48 1 17 49
M  V30 49 1 18 50 CFG=3
M  V30 50 1 19 51
M  V30 51 1 19 52
M  V30 52 1 20 53
M  V30 53 1 20 54
M  V30 54 1 21 55
M  V30 55 1 21 56
M  V30 56 1 22 57
M  V30 57 1 22 58
M  V30 58 1 23 59
M  V30 59 1 23 60
M  V30 60 1 27 61
M  V30 61 1 27 62
M  V30 62 1 27 63
M  V30 END BOND
M  V30 END CTAB
M  END
