
     RDKit          3D

  0  0  0  0  0  0  0  0  0  0999 V3000
M  V30 BEGIN CTAB
M  V30 COUNTS 44 45 0 0 0
M  V30 BEGIN ATOM
M  V30 1 C -6.88375 -1.1167 -0.214929 0
M  V30 2 C -5.65992 -1.94717 0.0531306 0
M  V30 3 C -4.37916 -1.19913 -0.280499 0
M  V30 4 C -4.26332 0.0388718 0.531296 0
M  V30 5 O -3.13422 0.806284 0.313016 0
M  V30 6 C -1.82591 0.446792 0.475981 0
M  V30 7 O -1.58773 -0.714519 0.871135 0
M  V30 8 C -0.698086 1.34003 0.2152 0
M  V30 9 C -0.912772 2.62954 -0.221231 0
M  V30 10 C 0.14498 3.47823 -0.469478 0
M  V30 11 N -0.0857024 4.80645 -0.919306 0
M  V30 12 C 1.42904 3.05521 -0.286836 0
M  V30 13 C 1.64773 1.76364 0.150421 0
M  V30 14 C 0.59969 0.91482 0.399028 0
M  V30 15 S 0.865338 -0.771019 0.969082 0
M  V30 16 C 2.62681 -1.03448 1.11331 0
M  V30 17 N 3.41547 -0.816627 2.18139 0
M  V30 18 N 4.66633 -1.13625 1.88775 0
M  V30 19 C 4.71691 -1.56768 0.625301 0
M  V30 20 N 3.45471 -1.50314 0.150703 0
M  V30 21 N 3.02531 -1.85569 -1.12977 0
M  V30 22 C 5.92972 -2.03664 -0.134787 0
M  V30 23 C 6.57667 -0.875676 -0.83586 0
M  V30 24 H -7.76329 -1.77989 -0.100092 0
M  V30 25 H -7.00433 -0.298519 0.507362 0
M  V30 26 H -6.88863 -0.742644 -1.26785 0
M  V30 27 H -5.69711 -2.25586 1.1207 0
M  V30 28 H -5.75547 -2.87652 -0.541156 0
M  V30 29 H -3.55288 -1.89069 -0.0172153 0
M  V30 30 H -4.42317 -1.00507 -1.37977 0
M  V30 31 H -5.15683 0.68471 0.282823 0
M  V30 32 H -4.42028 -0.2404 1.60188 0
M  V30 33 H -1.90999 3.03234 -0.387834 0
M  V30 34 H -0.736943 5.4186 -0.396792 0
M  V30 35 H 0.383209 5.18269 -1.7622 0
M  V30 36 H 2.29086 3.6945 -0.471709 0
M  V30 37 H 2.65556 1.39043 0.307516 0
M  V30 38 H 2.05504 -2.19786 -1.30732 0
M  V30 39 H 3.65619 -1.79129 -1.95904 0
M  V30 40 H 5.65022 -2.81742 -0.873694 0
M  V30 41 H 6.62532 -2.42184 0.638885 0
M  V30 42 H 7.67486 -0.977258 -0.737354 0
M  V30 43 H 6.37215 -0.912671 -1.93707 0
M  V30 44 H 6.27738 0.0995052 -0.400791 0
M  V30 END ATOM
M  V30 BEGIN BOND
M  V30 1 1 1 2
M  V30 2 1 2 3
M  V30 3 1 3 4
M  V30 4 1 4 5
M  V30 5 1 5 6
M  V30 6 2 6 7
M  V30 7 1 6 8
M  V30 8 2 8 9
M  V30 9 1 9 10
M  V30 10 1 10 11
M  V30 11 2 10 12
M  V30 12 1 12 13
M  V30 13 2 13 14
M  V30 14 1 14 15
M  V30 15 1 15 16
M  V30 16 2 16 17
M  V30 17 1 17 18
M  V30 18 2 18 19
M  V30 19 1 19 20
M  V30 20 1 20 21
M  V30 21 1 19 22
M  V30 22 1 22 23
M  V30 23 1 14 8
M  V30 24 1 20 16
M  V30 25 1 1 24
M  V30 26 1 1 25
M  V30 27 1 1 26
M  V30 28 1 2 27
M  V30 29 1 2 28
M  V30 30 1 3 29
M  V30 31 1 3 30
M  V30 32 1 4 31
M  V30 33 1 4 32
M  V30 34 1 9 33
M  V30 35 1 11 34
M  V30 36 1 11 35
M  V30 37 1 12 36
M  V30 38 1 13 37
M  V30 39 1 21 38
M  V30 40 1 21 39
M  V30 41 1 22 40
M  V30 42 1 22 41
M  V30 43 1 23 42
M  V30 44 1 23 43
M  V30 45 1 23 44
M  V30 END BOND
M  V30 END CTAB
M  END
