
     RDKit          3D

  0  0  0  0  0  0  0  0  0  0999 V3000
M  V30 BEGIN CTAB
M  V30 COUNTS 17 17 0 0 0
M  V30 BEGIN ATOM
M  V30 1 O -2.39842 1.20587 0.197684 0
M  V30 2 C -1.41049 0.278206 -0.0340563 0
M  V30 3 C -1.73945 -0.989061 -0.514276 0
M  V30 4 C -0.678241 -1.87705 -0.724853 0
M  V30 5 C 0.632729 -1.53455 -0.475932 0
M  V30 6 C 0.932736 -0.25426 0.00606902 0
M  V30 7 C -0.106284 0.624055 0.215384 0
M  V30 8 N 0.164335 1.92498 0.701851 0
M  V30 9 N 2.27594 0.0956564 0.260748 0
M  V30 10 Br 1.98402 -2.83796 -0.805155 0
M  V30 11 H -2.17195 2.12579 0.545043 0
M  V30 12 H -2.76388 -1.2596 -0.709832 0
M  V30 13 H -0.898763 -2.84943 -1.09022 0
M  V30 14 H 0.369127 2.17351 1.67894 0
M  V30 15 H 0.155443 2.70825 0.00237831 0
M  V30 16 H 2.83139 -0.315201 1.06677 0
M  V30 17 H 2.82176 0.780788 -0.320538 0
M  V30 END ATOM
M  V30 BEGIN BOND
M  V30 1 1 1 2
M  V30 2 2 2 3
M  V30 3 1 3 4
M  V30 4 2 4 5
M  V30 5 1 5 6
M  V30 6 2 6 7
M  V30 7 1 7 8
M  V30 8 1 6 9
M  V30 9 1 5 10
M  V30 10 1 7 2
M  V30 11 1 1 11
M  V30 12 1 3 12
M  V30 13 1 4 13
M  V30 14 1 8 14
M  V30 15 1 8 15
M  V30 16 1 9 16
M  V30 17 1 9 17
M  V30 END BOND
M  V30 END CTAB
M  END
