
     RDKit          3D

  0  0  0  0  0  0  0  0  0  0999 V3000
M  V30 BEGIN CTAB
M  V30 COUNTS 35 37 0 0 0
M  V30 BEGIN ATOM
M  V30 1 N -4.01268 3.42589 1.48037 0
M  V30 2 N -3.40459 2.16709 1.23346 0
M  V30 3 C -2.28632 2.0511 0.389939 0
M  V30 4 O -1.80456 3.13185 -0.153804 0
M  V30 5 C -1.55401 0.85995 0.0278583 0
M  V30 6 C -0.140786 0.903071 0.0416548 0
M  V30 7 C 0.6171 -0.206546 -0.193454 0
M  V30 8 N -0.0205646 -1.34791 -0.440484 0
M  V30 9 C -1.35781 -1.44826 -0.468644 0
M  V30 10 C -2.14601 -0.326646 -0.231987 0
M  V30 11 C -3.50293 -0.507409 -0.313477 0
M  V30 12 C -4.08885 -1.73557 -0.609441 0
M  V30 13 Br -5.97614 -1.91668 -0.70534 0
M  V30 14 C -3.30017 -2.83787 -0.83758 0
M  V30 15 C -1.94096 -2.65984 -0.759937 0
M  V30 16 C 2.0849 -0.215347 -0.190604 0
M  V30 17 C 2.84099 0.909994 0.0509004 0
M  V30 18 C 4.22944 0.856545 0.0451698 0
M  V30 19 C 4.91702 -0.311813 -0.199905 0
M  V30 20 C 4.15545 -1.43516 -0.441043 0
M  V30 21 C 2.7816 -1.39436 -0.437848 0
M  V30 22 N 6.3401 -0.344983 -0.201829 0
M  V30 23 H -3.55363 4.15035 0.849835 0
M  V30 24 H -3.92675 3.69182 2.4913 0
M  V30 25 H -3.82155 1.37346 1.73196 0
M  V30 26 H 0.31879 1.8395 0.243631 0
M  V30 27 H -4.17584 0.320657 -0.184681 0
M  V30 28 H -3.7411 -3.79742 -1.06693 0
M  V30 29 H -1.28252 -3.51937 -0.936682 0
M  V30 30 H 2.32746 1.85614 0.249104 0
M  V30 31 H 4.79622 1.76292 0.239873 0
M  V30 32 H 4.7064 -2.36674 -0.636238 0
M  V30 33 H 2.19536 -2.27194 -0.626079 0
M  V30 34 H 6.88989 -1.22447 -0.180114 0
M  V30 35 H 6.83705 0.568007 -0.226414 0
M  V30 END ATOM
M  V30 BEGIN BOND
M  V30 1 1 1 2
M  V30 2 1 2 3
M  V30 3 2 3 4
M  V30 4 1 3 5
M  V30 5 2 5 6
M  V30 6 1 6 7
M  V30 7 2 7 8
M  V30 8 1 8 9
M  V30 9 2 9 10
M  V30 10 1 10 11
M  V30 11 2 11 12
M  V30 12 1 12 13
M  V30 13 1 12 14
M  V30 14 2 14 15
M  V30 15 1 7 16
M  V30 16 2 16 17
M  V30 17 1 17 18
M  V30 18 2 18 19
M  V30 19 1 19 20
M  V30 20 2 20 21
M  V30 21 1 19 22
M  V30 22 1 10 5
M  V30 23 1 21 16
M  V30 24 1 15 9
M  V30 25 1 1 23
M  V30 26 1 1 24
M  V30 27 1 2 25
M  V30 28 1 6 26
M  V30 29 1 11 27
M  V30 30 1 14 28
M  V30 31 1 15 29
M  V30 32 1 17 30
M  V30 33 1 18 31
M  V30 34 1 20 32
M  V30 35 1 21 33
M  V30 36 1 22 34
M  V30 37 1 22 35
M  V30 END BOND
M  V30 END CTAB
M  END
