
     RDKit          3D

  0  0  0  0  0  0  0  0  0  0999 V3000
M  V30 BEGIN CTAB
M  V30 COUNTS 18 18 0 0 0
M  V30 BEGIN ATOM
M  V30 1 N 2.85077 -0.275677 0.446685 0
M  V30 2 C 1.55985 0.207301 0.153787 0
M  V30 3 C 1.35202 1.55702 0.0870577 0
M  V30 4 C 0.109285 2.037 -0.195139 0
M  V30 5 F -0.120168 3.37417 -0.266425 0
M  V30 6 C -0.956191 1.17079 -0.417419 0
M  V30 7 C -0.777686 -0.205624 -0.356766 0
M  V30 8 C 0.496069 -0.650647 -0.0682479 0
M  V30 9 C -1.87075 -1.14528 -0.584037 0
M  V30 10 S -2.46664 -1.51088 -2.03845 0
M  V30 11 N -2.43503 -1.7697 0.562978 0
M  V30 12 H 3.11157 -0.482924 1.4187 0
M  V30 13 H 3.52824 -0.419433 -0.312674 0
M  V30 14 H 2.15458 2.28517 0.25333 0
M  V30 15 H -1.94974 1.54874 -0.642927 0
M  V30 16 H 0.660825 -1.70566 -0.0155683 0
M  V30 17 H -1.8281 -2.37386 1.15899 0
M  V30 18 H -3.41891 -1.64051 0.816116 0
M  V30 END ATOM
M  V30 BEGIN BOND
M  V30 1 1 1 2
M  V30 2 2 2 3
M  V30 3 1 3 4
M  V30 4 1 4 5
M  V30 5 2 4 6
M  V30 6 1 6 7
M  V30 7 2 7 8
M  V30 8 1 7 9
M  V30 9 2 9 10
M  V30 10 1 9 11
M  V30 11 1 8 2
M  V30 12 1 1 12
M  V30 13 1 1 13
M  V30 14 1 3 14
M  V30 15 1 6 15
M  V30 16 1 8 16
M  V30 17 1 11 17
M  V30 18 1 11 18
M  V30 END BOND
M  V30 END CTAB
M  END
