
     RDKit          3D

  0  0  0  0  0  0  0  0  0  0999 V3000
M  V30 BEGIN CTAB
M  V30 COUNTS 53 56 0 0 0
M  V30 BEGIN ATOM
M  V30 1 C 6.16654 2.41316 -1.68087 0
M  V30 2 C 4.6873 2.32296 -1.94344 0
M  V30 3 O 3.9388 1.57759 -1.05205 0
M  V30 4 C 3.86901 1.79061 0.343654 0
M  V30 5 O 4.51913 2.67853 0.809469 0
M  V30 6 C 2.9642 0.870917 1.10038 0
M  V30 7 N 2.8562 0.937874 2.40076 0
M  V30 8 N 1.98156 0.00414601 2.81135 0
M  V30 9 N 1.53313 -0.67243 1.78076 0
M  V30 10 C 2.14536 -0.134524 0.65478 0
M  V30 11 C 2.02018 -0.63896 -0.703598 0
M  V30 12 S 0.50705 -0.469743 -1.52106 0
M  V30 13 C -1.10341 -0.70805 -1.21326 0
M  V30 14 C -2.08035 0.350988 -0.781134 0
M  V30 15 C -3.43968 -0.0044709 -0.567634 0
M  V30 16 N -4.12582 1.11127 -0.42083 0
M  V30 17 N -3.24941 2.08636 -0.518263 0
M  V30 18 N -2.03608 1.6491 -0.733598 0
M  V30 19 C -0.892913 2.57526 -0.89763 0
M  V30 20 N 0.0923553 2.4685 -1.66722 0
M  V30 21 O 0.894695 3.53491 -1.54119 0
M  V30 22 N 0.360403 4.31963 -0.660105 0
M  V30 23 C -0.822041 3.73868 -0.20388 0
M  V30 24 N -1.65056 4.38935 0.747945 0
M  V30 25 C -3.95256 -1.38346 -0.383057 0
M  V30 26 O -3.28502 -2.40016 -0.169633 0
M  V30 27 O -5.34677 -1.6059 -0.461207 0
M  V30 28 C -6.00292 -2.80525 -0.305746 0
M  V30 29 C -6.14895 -3.31704 1.09362 0
M  V30 30 C 0.752933 -1.87466 1.89495 0
M  V30 31 N -0.531443 -2.09623 2.18264 0
M  V30 32 O -0.764965 -3.35596 2.21405 0
M  V30 33 N 0.320964 -4.04878 1.9565 0
M  V30 34 C 1.27443 -3.18374 1.75119 0
M  V30 35 N 2.6457 -3.45849 1.50238 0
M  V30 36 H 6.42984 2.81039 -0.67242 0
M  V30 37 H 6.73145 1.48263 -1.82962 0
M  V30 38 H 6.54263 3.2014 -2.40994 0
M  V30 39 H 4.60033 1.80282 -2.95324 0
M  V30 40 H 4.21638 3.32398 -2.05009 0
M  V30 41 H 2.82245 -0.189609 -1.35886 0
M  V30 42 H 2.33797 -1.76916 -0.692018 0
M  V30 43 H -1.70539 -1.17491 -2.12286 0
M  V30 44 H -1.30313 -1.57907 -0.47851 0
M  V30 45 H -2.57144 4.02969 1.03911 0
M  V30 46 H -1.31061 5.29818 1.15811 0
M  V30 47 H -7.0198 -2.67948 -0.786851 0
M  V30 48 H -5.4657 -3.63738 -0.896434 0
M  V30 49 H -5.49923 -4.19963 1.36019 0
M  V30 50 H -7.22 -3.76463 1.18669 0
M  V30 51 H -6.11075 -2.57688 1.90837 0
M  V30 52 H 3.39228 -2.71937 1.73683 0
M  V30 53 H 3.03567 -4.32094 1.0777 0
M  V30 END ATOM
M  V30 BEGIN BOND
M  V30 1 1 1 2
M  V30 2 1 2 3
M  V30 3 1 3 4
M  V30 4 2 4 5
M  V30 5 1 4 6
M  V30 6 1 6 7
M  V30 7 2 7 8
M  V30 8 1 8 9
M  V30 9 1 9 10
M  V30 10 1 10 11
M  V30 11 1 11 12
M  V30 12 1 12 13
M  V30 13 1 13 14
M  V30 14 2 14 15
M  V30 15 1 15 16
M  V30 16 2 16 17
M  V30 17 1 17 18
M  V30 18 1 18 19
M  V30 19 2 19 20
M  V30 20 1 20 21
M  V30 21 1 21 22
M  V30 22 2 22 23
M  V30 23 1 23 24
M  V30 24 1 15 25
M  V30 25 2 25 26
M  V30 26 1 25 27
M  V30 27 1 27 28
M  V30 28 1 28 29
M  V30 29 1 9 30
M  V30 30 2 30 31
M  V30 31 1 31 32
M  V30 32 1 32 33
M  V30 33 2 33 34
M  V30 34 1 34 35
M  V30 35 2 10 6
M  V30 36 1 18 14
M  V30 37 1 23 19
M  V30 38 1 34 30
M  V30 39 1 1 36
M  V30 40 1 1 37
M  V30 41 1 1 38
M  V30 42 1 2 39
M  V30 43 1 2 40
M  V30 44 1 11 41
M  V30 45 1 11 42
M  V30 46 1 13 43
M  V30 47 1 13 44
M  V30 48 1 24 45
M  V30 49 1 24 46
M  V30 50 1 28 47
M  V30 51 1 28 48
M  V30 52 1 29 49
M  V30 53 1 29 50
M  V30 54 1 29 51
M  V30 55 1 35 52
M  V30 56 1 35 53
M  V30 END BOND
M  V30 END CTAB
M  END
