
     RDKit          3D

  0  0  0  0  0  0  0  0  0  0999 V3000
M  V30 BEGIN CTAB
M  V30 COUNTS 24 24 0 0 0
M  V30 BEGIN ATOM
M  V30 1 N -2.99977 -2.87966 1.2163 0
M  V30 2 C -2.79108 -2.09365 0.372599 0
M  V30 3 C -2.51103 -1.1016 -0.677102 0
M  V30 4 C -1.31021 -0.301215 -0.313225 0
M  V30 5 C -1.5095 0.980782 0.156605 0
M  V30 6 C -0.408975 1.72766 0.497364 0
M  V30 7 N -0.601851 3.0461 0.981151 0
M  V30 8 C 0.863671 1.22118 0.3775 0
M  V30 9 C 1.04641 -0.0498781 -0.0890746 0
M  V30 10 C -0.0443499 -0.826957 -0.440661 0
M  V30 11 N 0.09651 -2.12933 -0.921451 0
M  V30 12 O 2.28798 -0.596983 -0.225925 0
M  V30 13 C 3.53091 -0.0491251 0.0469072 0
M  V30 14 F 4.35755 -0.00403146 -1.06869 0
M  V30 15 F 4.15012 -0.896798 0.979142 0
M  V30 16 H -3.38265 -0.422339 -0.71223 0
M  V30 17 H -2.3656 -1.6513 -1.62928 0
M  V30 18 H -2.51037 1.39172 0.255281 0
M  V30 19 H -1.05359 3.75819 0.359406 0
M  V30 20 H -0.28498 3.2598 1.94374 0
M  V30 21 H 1.68749 1.88138 0.670777 0
M  V30 22 H 0.178479 -2.30692 -1.93829 0
M  V30 23 H 0.120625 -2.9313 -0.266616 0
M  V30 24 H 3.4542 0.97426 0.425772 0
M  V30 END ATOM
M  V30 BEGIN BOND
M  V30 1 3 1 2
M  V30 2 1 2 3
M  V30 3 1 3 4
M  V30 4 2 4 5
M  V30 5 1 5 6
M  V30 6 1 6 7
M  V30 7 2 6 8
M  V30 8 1 8 9
M  V30 9 2 9 10
M  V30 10 1 10 11
M  V30 11 1 9 12
M  V30 12 1 12 13
M  V30 13 1 13 14
M  V30 14 1 13 15
M  V30 15 1 10 4
M  V30 16 1 3 16
M  V30 17 1 3 17
M  V30 18 1 5 18
M  V30 19 1 7 19
M  V30 20 1 7 20
M  V30 21 1 8 21
M  V30 22 1 11 22
M  V30 23 1 11 23
M  V30 24 1 13 24
M  V30 END BOND
M  V30 END CTAB
M  END
