
     RDKit          3D

  0  0  0  0  0  0  0  0  0  0999 V3000
M  V30 BEGIN CTAB
M  V30 COUNTS 26 26 0 0 0
M  V30 BEGIN ATOM
M  V30 1 C 2.74986 -1.47846 0.52382 0
M  V30 2 C 1.31077 -1.47912 0.0879034 0
M  V30 3 C 0.759339 -0.0923923 -0.0601553 0
M  V30 4 C -0.65031 -0.107162 -0.502129 0
M  V30 5 C -0.987883 -0.471318 -1.82844 0
M  V30 6 N -2.23828 -0.340708 -2.30965 0
M  V30 7 C -3.23942 0.135182 -1.58701 0
M  V30 8 C -3.01112 0.515169 -0.26288 0
M  V30 9 C -1.69662 0.376504 0.246953 0
M  V30 10 N -1.4797 0.638651 1.61752 0
M  V30 11 N 1.16743 0.876871 0.83438 0
M  V30 12 N 0.906498 2.16948 0.322425 0
M  V30 13 H 2.87772 -1.01886 1.52228 0
M  V30 14 H 3.43523 -0.924039 -0.164638 0
M  V30 15 H 3.16958 -2.52554 0.542426 0
M  V30 16 H 0.722119 -1.93937 0.962412 0
M  V30 17 H 1.18599 -2.12732 -0.806298 0
M  V30 18 H 1.29791 0.270795 -1.06565 0
M  V30 19 H -0.169586 -0.881751 -2.40833 0
M  V30 20 H -4.2768 0.261973 -1.99122 0
M  V30 21 H -3.79228 0.909832 0.39929 0
M  V30 22 H -1.60824 -0.214886 2.2678 0
M  V30 23 H -1.25051 1.53246 2.08165 0
M  V30 24 H 2.155 0.817412 1.16593 0
M  V30 25 H 1.23015 2.8625 0.988224 0
M  V30 26 H 1.43315 2.2341 -0.576616 0
M  V30 END ATOM
M  V30 BEGIN BOND
M  V30 1 1 1 2
M  V30 2 1 2 3
M  V30 3 1 3 4
M  V30 4 2 4 5
M  V30 5 1 5 6
M  V30 6 2 6 7
M  V30 7 1 7 8
M  V30 8 2 8 9
M  V30 9 1 9 10
M  V30 10 1 3 11
M  V30 11 1 11 12
M  V30 12 1 9 4
M  V30 13 1 1 13
M  V30 14 1 1 14
M  V30 15 1 1 15
M  V30 16 1 2 16
M  V30 17 1 2 17
M  V30 18 1 3 18
M  V30 19 1 5 19
M  V30 20 1 7 20
M  V30 21 1 8 21
M  V30 22 1 10 22
M  V30 23 1 10 23
M  V30 24 1 11 24
M  V30 25 1 12 25
M  V30 26 1 12 26
M  V30 END BOND
M  V30 END CTAB
M  END
