
     RDKit          3D

  0  0  0  0  0  0  0  0  0  0999 V3000
M  V30 BEGIN CTAB
M  V30 COUNTS 38 40 0 0 0
M  V30 BEGIN ATOM
M  V30 1 C 6.48568 -0.196314 -0.310932 0
M  V30 2 C 6.37132 0.987349 0.615858 0
M  V30 3 O 5.25046 0.849506 1.41907 0
M  V30 4 C 3.95285 0.799804 1.01702 0
M  V30 5 C 2.99086 0.634929 2.02655 0
M  V30 6 C 1.67748 0.585778 1.62963 0
M  V30 7 C 1.28836 0.690137 0.31221 0
M  V30 8 C 2.25987 0.850052 -0.63866 0
M  V30 9 C 3.58913 0.905817 -0.295652 0
M  V30 10 N -0.113331 0.630555 -0.0417246 0
M  V30 11 N -0.575667 -0.493248 -0.339952 0
M  V30 12 C -1.91971 -0.741698 -0.710777 0
M  V30 13 C -2.39156 -1.41314 -1.8098 0
M  V30 14 N -1.5928 -2.02471 -2.84848 0
M  V30 15 N -3.73277 -1.39191 -1.7335 0
M  V30 16 N -4.09159 -0.742521 -0.645591 0
M  V30 17 C -3.0068 -0.318014 0.0251564 0
M  V30 18 N -3.11736 0.382954 1.19102 0
M  V30 19 C -4.32206 0.663931 1.69391 0
M  V30 20 C -5.44281 0.237092 1.0204 0
M  V30 21 C -5.3034 -0.467941 -0.153091 0
M  V30 22 N -6.47076 -0.899997 -0.833855 0
M  V30 23 C -6.74027 0.527978 1.54257 0
M  V30 24 N -7.80635 0.766879 1.95009 0
M  V30 25 H 7.41673 -0.761317 -0.0689997 0
M  V30 26 H 6.49171 0.122281 -1.38855 0
M  V30 27 H 5.5827 -0.822035 -0.181816 0
M  V30 28 H 6.32262 1.92523 0.00685946 0
M  V30 29 H 7.26734 1.00425 1.28715 0
M  V30 30 H 3.32265 0.556189 3.04654 0
M  V30 31 H 0.916661 0.457403 2.40764 0
M  V30 32 H 1.97888 0.934102 -1.6776 0
M  V30 33 H 4.32488 1.04478 -1.10301 0
M  V30 34 H -1.70832 -3.04275 -3.06427 0
M  V30 35 H -0.918757 -1.43943 -3.36067 0
M  V30 36 H -4.43877 1.22579 2.62928 0
M  V30 37 H -6.80135 -1.8858 -0.825289 0
M  V30 38 H -6.99575 -0.141969 -1.36209 0
M  V30 END ATOM
M  V30 BEGIN BOND
M  V30 1 1 1 2
M  V30 2 1 2 3
M  V30 3 1 3 4
M  V30 4 2 4 5
M  V30 5 1 5 6
M  V30 6 2 6 7
M  V30 7 1 7 8
M  V30 8 2 8 9
M  V30 9 1 7 10
M  V30 10 2 10 11
M  V30 11 1 11 12
M  V30 12 1 12 13
M  V30 13 1 13 14
M  V30 14 2 13 15
M  V30 15 1 15 16
M  V30 16 1 16 17
M  V30 17 1 17 18
M  V30 18 2 18 19
M  V30 19 1 19 20
M  V30 20 2 20 21
M  V30 21 1 21 22
M  V30 22 1 20 23
M  V30 23 3 23 24
M  V30 24 1 9 4
M  V30 25 2 17 12
M  V30 26 1 21 16
M  V30 27 1 1 25
M  V30 28 1 1 26
M  V30 29 1 1 27
M  V30 30 1 2 28
M  V30 31 1 2 29
M  V30 32 1 5 30
M  V30 33 1 6 31
M  V30 34 1 8 32
M  V30 35 1 9 33
M  V30 36 1 14 34
M  V30 37 1 14 35
M  V30 38 1 19 36
M  V30 39 1 22 37
M  V30 40 1 22 38
M  V30 END BOND
M  V30 END CTAB
M  END
