
     RDKit          3D

  0  0  0  0  0  0  0  0  0  0999 V3000
M  V30 BEGIN CTAB
M  V30 COUNTS 40 41 0 0 0
M  V30 BEGIN ATOM
M  V30 1 O 5.75707 0.685304 0.631022 0
M  V30 2 C 5.62452 0.982769 -0.601983 0
M  V30 3 C 5.23361 -0.223754 -1.41447 0
M  V30 4 O 4.12664 -0.80898 -1.07004 0
M  V30 5 C 2.87116 -0.462952 -1.00362 0
M  V30 6 C 2.36513 0.588013 -0.0820486 0
M  V30 7 N 0.927833 0.787421 -0.186269 0
M  V30 8 C -0.0431762 -0.185615 0.169375 0
M  V30 9 C -1.40593 0.0866387 0.016656 0
M  V30 10 C -2.40078 -0.803781 0.349488 0
M  V30 11 N -1.99977 -1.99456 0.847518 0
M  V30 12 C -0.697613 -2.29132 1.00838 0
M  V30 13 N 0.241962 -1.39669 0.672142 0
M  V30 14 N -0.352268 -3.55772 1.53557 0
M  V30 15 C -3.82387 -0.490095 0.178005 0 CFG=2
M  V30 16 C -4.24572 0.00152138 -1.17064 0
M  V30 17 C -4.92086 1.17514 -0.497105 0 CFG=1
M  V30 18 C -4.30349 0.779389 0.834354 0
M  V30 19 N -4.47976 2.42972 -1.02504 0
M  V30 20 H 5.52121 0.854738 1.37753 0
M  V30 21 H 6.67761 1.29006 -0.944253 0
M  V30 22 H 4.95797 1.84079 -0.724863 0
M  V30 23 H 5.3074 0.0378484 -2.53145 0
M  V30 24 H 6.09977 -0.974816 -1.2661 0
M  V30 25 H 2.26907 -1.43709 -0.843745 0
M  V30 26 H 2.52933 -0.0957706 -2.05231 0
M  V30 27 H 2.52131 0.194659 0.964654 0
M  V30 28 H 2.8732 1.55539 -0.0955667 0
M  V30 29 H 0.567016 1.70405 -0.545637 0
M  V30 30 H -1.68456 1.04918 -0.384526 0
M  V30 31 H -0.584518 -3.79075 2.51177 0
M  V30 32 H 0.129861 -4.23838 0.937609 0
M  V30 33 H -4.47006 -1.33536 0.50313 0
M  V30 34 H -3.43116 0.267726 -1.8706 0
M  V30 35 H -5.00529 -0.604702 -1.69648 0
M  V30 36 H -6.03247 1.09717 -0.433998 0
M  V30 37 H -5.04206 0.630898 1.64895 0
M  V30 38 H -3.51613 1.46816 1.17759 0
M  V30 39 H -4.59662 2.43967 -2.05943 0
M  V30 40 H -3.56557 2.74609 -0.688059 0
M  V30 END ATOM
M  V30 BEGIN BOND
M  V30 1 1 1 2
M  V30 2 1 2 3
M  V30 3 1 3 4
M  V30 4 1 4 5
M  V30 5 1 5 6
M  V30 6 1 6 7
M  V30 7 1 7 8
M  V30 8 2 8 9
M  V30 9 1 9 10
M  V30 10 2 10 11
M  V30 11 1 11 12
M  V30 12 2 12 13
M  V30 13 1 12 14
M  V30 14 1 10 15
M  V30 15 1 15 16
M  V30 16 1 16 17
M  V30 17 1 17 18
M  V30 18 1 17 19
M  V30 19 1 13 8
M  V30 20 1 18 15
M  V30 21 1 1 20
M  V30 22 1 2 21
M  V30 23 1 2 22
M  V30 24 1 3 23
M  V30 25 1 3 24
M  V30 26 1 5 25
M  V30 27 1 5 26
M  V30 28 1 6 27
M  V30 29 1 6 28
M  V30 30 1 7 29
M  V30 31 1 9 30
M  V30 32 1 14 31
M  V30 33 1 14 32
M  V30 34 1 15 33 CFG=1
M  V30 35 1 16 34
M  V30 36 1 16 35
M  V30 37 1 17 36 CFG=1
M  V30 38 1 18 37
M  V30 39 1 18 38
M  V30 40 1 19 39
M  V30 41 1 19 40
M  V30 END BOND
M  V30 END CTAB
M  END
