
     RDKit          3D

  0  0  0  0  0  0  0  0  0  0999 V3000
M  V30 BEGIN CTAB
M  V30 COUNTS 41 42 0 0 0
M  V30 BEGIN ATOM
M  V30 1 C 4.27472 -0.41437 1.97894 0
M  V30 2 O 4.42867 -0.0579399 0.607236 0
M  V30 3 C 3.35778 0.183982 -0.217062 0
M  V30 4 C 2.08046 0.0818381 0.287573 0
M  V30 5 C 0.964842 0.314622 -0.497834 0
M  V30 6 C 1.20773 0.654014 -1.81224 0
M  V30 7 C 2.5046 0.759113 -2.33004 0
M  V30 8 C 3.58779 0.523253 -1.52995 0
M  V30 9 N 4.88891 0.640879 -2.09601 0
M  V30 10 N -0.360461 0.21114 0.0222063 0
M  V30 11 C -0.504849 -0.10527 1.40811 0
M  V30 12 C -1.85799 -0.162297 1.96601 0
M  V30 13 C -3.00363 -0.223551 1.0296 0
M  V30 14 C -2.5862 -0.617721 -0.365478 0
M  V30 15 C -1.52328 0.408552 -0.783091 0
M  V30 16 C -1.99788 -1.99276 -0.337854 0
M  V30 17 C -3.77407 -0.531338 -1.28093 0
M  V30 18 N -3.7773 1.02556 1.00932 0
M  V30 19 H 3.56986 0.363197 2.39645 0
M  V30 20 H 3.79792 -1.3954 2.11196 0
M  V30 21 H 5.21337 -0.279841 2.53841 0
M  V30 22 H 1.91504 -0.191698 1.34199 0
M  V30 23 H 0.424416 0.853235 -2.49757 0
M  V30 24 H 2.65518 1.02944 -3.37322 0
M  V30 25 H 5.69118 1.0376 -1.53025 0
M  V30 26 H 5.09417 0.347459 -3.06567 0
M  V30 27 H -0.0062694 -1.10807 1.56136 0
M  V30 28 H 0.157478 0.60233 1.99009 0
M  V30 29 H -2.00717 0.761197 2.60337 0
M  V30 30 H -1.93243 -0.996337 2.72659 0
M  V30 31 H -3.72035 -0.997227 1.37581 0
M  V30 32 H -1.40644 0.268685 -1.85518 0
M  V30 33 H -1.97602 1.42263 -0.626191 0
M  V30 34 H -2.74488 -2.6758 -0.836656 0
M  V30 35 H -1.04269 -1.97504 -0.916812 0
M  V30 36 H -1.84959 -2.3671 0.681038 0
M  V30 37 H -3.40407 -0.392992 -2.31536 0
M  V30 38 H -4.45978 0.313384 -0.979946 0
M  V30 39 H -4.29934 -1.49397 -1.243 0
M  V30 40 H -3.15418 1.83912 1.01986 0
M  V30 41 H -4.42527 1.02523 1.83442 0
M  V30 END ATOM
M  V30 BEGIN BOND
M  V30 1 1 1 2
M  V30 2 1 2 3
M  V30 3 2 3 4
M  V30 4 1 4 5
M  V30 5 2 5 6
M  V30 6 1 6 7
M  V30 7 2 7 8
M  V30 8 1 8 9
M  V30 9 1 5 10
M  V30 10 1 10 11
M  V30 11 1 11 12
M  V30 12 1 12 13
M  V30 13 1 13 14
M  V30 14 1 14 15
M  V30 15 1 14 16
M  V30 16 1 14 17
M  V30 17 1 13 18
M  V30 18 1 8 3
M  V30 19 1 15 10
M  V30 20 1 1 19
M  V30 21 1 1 20
M  V30 22 1 1 21
M  V30 23 1 4 22
M  V30 24 1 6 23
M  V30 25 1 7 24
M  V30 26 1 9 25
M  V30 27 1 9 26
M  V30 28 1 11 27
M  V30 29 1 11 28
M  V30 30 1 12 29
M  V30 31 1 12 30
M  V30 32 1 13 31
M  V30 33 1 15 32
M  V30 34 1 15 33
M  V30 35 1 16 34
M  V30 36 1 16 35
M  V30 37 1 16 36
M  V30 38 1 17 37
M  V30 39 1 17 38
M  V30 40 1 17 39
M  V30 41 1 18 40
M  V30 42 1 18 41
M  V30 END BOND
M  V30 END CTAB
M  END
