
     RDKit          3D

  0  0  0  0  0  0  0  0  0  0999 V3000
M  V30 BEGIN CTAB
M  V30 COUNTS 30 31 0 0 0
M  V30 BEGIN ATOM
M  V30 1 N -1.77735 -2.46208 0.371557 0
M  V30 2 C -1.5657 -1.19544 -0.197313 0 CFG=1
M  V30 3 C -2.87729 -0.645042 -0.649553 0
M  V30 4 C -2.9507 0.692374 -0.024101 0
M  V30 5 O -4.01355 1.39314 -0.0355482 0
M  V30 6 N -1.68995 1.01817 0.551613 0
M  V30 7 C -0.972086 -0.215652 0.784887 0 CFG=2
M  V30 8 C 0.463383 -0.102907 0.505747 0
M  V30 9 C 0.975404 0.510191 -0.607024 0
M  V30 10 C 2.32894 0.585572 -0.816339 0
M  V30 11 C 3.23815 0.0514674 0.0769267 0
M  V30 12 C 2.71181 -0.568028 1.2018 0
M  V30 13 C 1.35712 -0.640018 1.40518 0
M  V30 14 N 4.63155 0.13902 -0.156071 0
M  V30 15 C -1.28994 2.37985 0.818062 0
M  V30 16 H -2.25869 -3.09518 -0.187052 0
M  V30 17 H -1.68714 -2.62283 1.30832 0
M  V30 18 H -0.895051 -1.33981 -1.0792 0
M  V30 19 H -2.95586 -0.567417 -1.75599 0
M  V30 20 H -3.74721 -1.23891 -0.253154 0
M  V30 21 H -1.13723 -0.58953 1.81457 0
M  V30 22 H 0.297328 0.942179 -1.33272 0
M  V30 23 H 2.70503 1.07945 -1.71068 0
M  V30 24 H 3.41275 -0.996225 1.91951 0
M  V30 25 H 1.01545 -1.14185 2.31169 0
M  V30 26 H 4.98206 0.135481 -1.1296 0
M  V30 27 H 5.32113 0.207117 0.615296 0
M  V30 28 H -0.38312 2.44038 1.45521 0
M  V30 29 H -2.09287 2.91986 1.39252 0
M  V30 30 H -1.14637 2.92667 -0.11347 0
M  V30 END ATOM
M  V30 BEGIN BOND
M  V30 1 1 1 2
M  V30 2 1 2 3
M  V30 3 1 3 4
M  V30 4 2 4 5
M  V30 5 1 4 6
M  V30 6 1 6 7
M  V30 7 1 7 8
M  V30 8 2 8 9
M  V30 9 1 9 10
M  V30 10 2 10 11
M  V30 11 1 11 12
M  V30 12 2 12 13
M  V30 13 1 11 14
M  V30 14 1 6 15
M  V30 15 1 7 2
M  V30 16 1 13 8
M  V30 17 1 1 16
M  V30 18 1 1 17
M  V30 19 1 2 18 CFG=3
M  V30 20 1 3 19
M  V30 21 1 3 20
M  V30 22 1 7 21 CFG=1
M  V30 23 1 9 22
M  V30 24 1 10 23
M  V30 25 1 12 24
M  V30 26 1 13 25
M  V30 27 1 14 26
M  V30 28 1 14 27
M  V30 29 1 15 28
M  V30 30 1 15 29
M  V30 31 1 15 30
M  V30 END BOND
M  V30 END CTAB
M  END
