
     RDKit          3D

  0  0  0  0  0  0  0  0  0  0999 V3000
M  V30 BEGIN CTAB
M  V30 COUNTS 31 31 0 0 0
M  V30 BEGIN ATOM
M  V30 1 C -4.01152 -0.489203 -1.09205 0
M  V30 2 N -3.24374 -0.681209 0.120667 0
M  V30 3 C -1.81808 -0.753299 -0.151219 0
M  V30 4 C -1.26158 0.556616 -0.616417 0
M  V30 5 N 0.147145 0.48594 -0.896707 0
M  V30 6 C 1.16811 0.215503 0.0465079 0
M  V30 7 N 0.934703 0.00136917 1.34531 0
M  V30 8 C 1.83596 -0.250897 2.28141 0
M  V30 9 C 3.17516 -0.30442 1.89554 0
M  V30 10 C 3.49697 -0.0947304 0.572492 0
M  V30 11 C 2.5069 0.163981 -0.349975 0
M  V30 12 N 2.88116 0.3751 -1.70452 0
M  V30 13 N 4.84092 -0.141026 0.14123 0
M  V30 14 C -3.55023 0.370386 1.07045 0
M  V30 15 H -3.72729 -1.2656 -1.82454 0
M  V30 16 H -5.07805 -0.658504 -0.835491 0
M  V30 17 H -3.84932 0.540482 -1.44243 0
M  V30 18 H -1.34047 -1.00828 0.828304 0
M  V30 19 H -1.66161 -1.51085 -0.919389 0
M  V30 20 H -1.39888 1.31181 0.207856 0
M  V30 21 H -1.78946 0.958586 -1.50231 0
M  V30 22 H 0.47136 0.649184 -1.89818 0
M  V30 23 H 1.5381 -0.409891 3.3104 0
M  V30 24 H 3.94027 -0.5131 2.65872 0
M  V30 25 H 3.52722 -0.282082 -2.18213 0
M  V30 26 H 2.52114 1.17848 -2.23331 0
M  V30 27 H 5.4929 0.628725 0.36797 0
M  V30 28 H 5.15474 -0.96665 -0.40828 0
M  V30 29 H -3.87447 1.27179 0.49229 0
M  V30 30 H -2.64922 0.55737 1.66756 0
M  V30 31 H -4.37883 0.0644177 1.7551 0
M  V30 END ATOM
M  V30 BEGIN BOND
M  V30 1 1 1 2
M  V30 2 1 2 3
M  V30 3 1 3 4
M  V30 4 1 4 5
M  V30 5 1 5 6
M  V30 6 2 6 7
M  V30 7 1 7 8
M  V30 8 2 8 9
M  V30 9 1 9 10
M  V30 10 2 10 11
M  V30 11 1 11 12
M  V30 12 1 10 13
M  V30 13 1 2 14
M  V30 14 1 11 6
M  V30 15 1 1 15
M  V30 16 1 1 16
M  V30 17 1 1 17
M  V30 18 1 3 18
M  V30 19 1 3 19
M  V30 20 1 4 20
M  V30 21 1 4 21
M  V30 22 1 5 22
M  V30 23 1 8 23
M  V30 24 1 9 24
M  V30 25 1 12 25
M  V30 26 1 12 26
M  V30 27 1 13 27
M  V30 28 1 13 28
M  V30 29 1 14 29
M  V30 30 1 14 30
M  V30 31 1 14 31
M  V30 END BOND
M  V30 END CTAB
M  END
