
     RDKit          3D

  0  0  0  0  0  0  0  0  0  0999 V3000
M  V30 BEGIN CTAB
M  V30 COUNTS 22 23 0 0 0
M  V30 BEGIN ATOM
M  V30 1 N -2.0652 2.48793 -0.434622 0
M  V30 2 C -1.64027 1.12235 -0.314967 0
M  V30 3 S -2.55782 -0.298327 -0.643925 0
M  V30 4 C -1.37418 -1.46326 -0.268041 0
M  V30 5 C -0.298407 -0.714924 0.102802 0
M  V30 6 C -0.426749 0.620271 0.0816104 0
M  V30 7 C 0.735658 1.49686 0.485868 0
M  V30 8 N 2.00336 0.900621 0.427108 0
M  V30 9 C 2.09923 -0.388372 -0.172044 0
M  V30 10 C 1.04687 -1.25045 0.542839 0
M  V30 11 N -1.48504 -2.88566 -0.328019 0
M  V30 12 H -1.63108 3.18061 0.197517 0
M  V30 13 H -2.7643 2.76311 -1.11299 0
M  V30 14 H 0.772119 2.42808 -0.152707 0
M  V30 15 H 0.487435 1.88028 1.51086 0
M  V30 16 H 2.74407 1.56268 0.167003 0
M  V30 17 H 1.86973 -0.403765 -1.243 0
M  V30 18 H 3.11126 -0.795074 0.0415736 0
M  V30 19 H 1.19653 -1.12575 1.61382 0
M  V30 20 H 1.22126 -2.26779 0.186634 0
M  V30 21 H -1.02619 -3.48118 0.388777 0
M  V30 22 H -2.01828 -3.36823 -1.0761 0
M  V30 END ATOM
M  V30 BEGIN BOND
M  V30 1 1 1 2
M  V30 2 1 2 3
M  V30 3 1 3 4
M  V30 4 2 4 5
M  V30 5 1 5 6
M  V30 6 1 6 7
M  V30 7 1 7 8
M  V30 8 1 8 9
M  V30 9 1 9 10
M  V30 10 1 4 11
M  V30 11 2 6 2
M  V30 12 1 10 5
M  V30 13 1 1 12
M  V30 14 1 1 13
M  V30 15 1 7 14
M  V30 16 1 7 15
M  V30 17 1 8 16
M  V30 18 1 9 17
M  V30 19 1 9 18
M  V30 20 1 10 19
M  V30 21 1 10 20
M  V30 22 1 11 21
M  V30 23 1 11 22
M  V30 END BOND
M  V30 END CTAB
M  END
