
     RDKit          3D

  0  0  0  0  0  0  0  0  0  0999 V3000
M  V30 BEGIN CTAB
M  V30 COUNTS 46 49 0 0 0
M  V30 BEGIN ATOM
M  V30 1 N 3.7217 2.00257 1.74971 0
M  V30 2 C 3.66632 0.883976 0.881156 0
M  V30 3 N 3.18177 0.948807 -0.387354 0
M  V30 4 C 3.14191 -0.123843 -1.18931 0
M  V30 5 C 2.63031 -0.0760431 -2.54608 0
M  V30 6 S 0.909446 -0.412908 -2.83726 0
M  V30 7 C -0.107941 0.840693 -2.09069 0
M  V30 8 N -0.346521 2.07746 -2.65394 0
M  V30 9 N -1.15749 2.75332 -1.90335 0
M  V30 10 C -1.50428 2.02916 -0.819845 0
M  V30 11 N -0.832927 0.837005 -0.969214 0
M  V30 12 C -1.04268 -0.206254 -0.0106023 0
M  V30 13 C -2.46854 -0.772603 -0.207901 0
M  V30 14 C -2.40787 -2.12091 -0.934225 0
M  V30 15 C -1.84177 -3.1544 0.0277949 0
M  V30 16 C -0.854374 -2.4222 0.918164 0
M  V30 17 C -0.156316 -1.37361 0.00478534 0
M  V30 18 C -2.39121 2.47429 0.243223 0
M  V30 19 C -3.04017 3.70579 0.268049 0
M  V30 20 C -3.78251 3.75048 1.43026 0
M  V30 21 C -3.55628 2.5539 2.05988 0
M  V30 22 O -2.73919 1.85727 1.31935 0
M  V30 23 N 3.60549 -1.28751 -0.688167 0
M  V30 24 C 4.09597 -1.4014 0.561989 0
M  V30 25 N 4.12893 -0.299338 1.36455 0
M  V30 26 N 4.58246 -2.61859 1.09342 0
M  V30 27 H 3.51707 1.96091 2.75599 0
M  V30 28 H 3.98685 2.91692 1.33177 0
M  V30 29 H 3.21284 -0.778677 -3.23376 0
M  V30 30 H 2.84225 0.928889 -3.04496 0
M  V30 31 H -1.00399 0.24042 1.0334 0
M  V30 32 H -3.00353 -0.876358 0.746832 0
M  V30 33 H -3.02123 -0.0819452 -0.860433 0
M  V30 34 H -1.79424 -1.99438 -1.81779 0
M  V30 35 H -3.44949 -2.37532 -1.22167 0
M  V30 36 H -2.68102 -3.59033 0.590002 0
M  V30 37 H -1.38172 -3.96822 -0.55338 0
M  V30 38 H -1.44736 -1.90553 1.69514 0
M  V30 39 H -0.124562 -3.07777 1.39019 0
M  V30 40 H -0.00575137 -1.89076 -0.937674 0
M  V30 41 H 0.777414 -1.15322 0.56362 0
M  V30 42 H -2.98434 4.49441 -0.47508 0
M  V30 43 H -4.42854 4.55656 1.79796 0
M  V30 44 H -3.99205 2.27384 2.99722 0
M  V30 45 H 5.53648 -2.92525 0.83638 0
M  V30 46 H 4.01068 -3.19929 1.72183 0
M  V30 END ATOM
M  V30 BEGIN BOND
M  V30 1 1 1 2
M  V30 2 2 2 3
M  V30 3 1 3 4
M  V30 4 1 4 5
M  V30 5 1 5 6
M  V30 6 1 6 7
M  V30 7 2 7 8
M  V30 8 1 8 9
M  V30 9 2 9 10
M  V30 10 1 10 11
M  V30 11 1 11 12
M  V30 12 1 12 13
M  V30 13 1 13 14
M  V30 14 1 14 15
M  V30 15 1 15 16
M  V30 16 1 16 17
M  V30 17 1 10 18
M  V30 18 2 18 19
M  V30 19 1 19 20
M  V30 20 2 20 21
M  V30 21 1 21 22
M  V30 22 2 4 23
M  V30 23 1 23 24
M  V30 24 2 24 25
M  V30 25 1 24 26
M  V30 26 1 25 2
M  V30 27 1 11 7
M  V30 28 1 17 12
M  V30 29 1 22 18
M  V30 30 1 1 27
M  V30 31 1 1 28
M  V30 32 1 5 29
M  V30 33 1 5 30
M  V30 34 1 12 31
M  V30 35 1 13 32
M  V30 36 1 13 33
M  V30 37 1 14 34
M  V30 38 1 14 35
M  V30 39 1 15 36
M  V30 40 1 15 37
M  V30 41 1 16 38
M  V30 42 1 16 39
M  V30 43 1 17 40
M  V30 44 1 17 41
M  V30 45 1 19 42
M  V30 46 1 20 43
M  V30 47 1 21 44
M  V30 48 1 26 45
M  V30 49 1 26 46
M  V30 END BOND
M  V30 END CTAB
M  END
