
     RDKit          3D

  0  0  0  0  0  0  0  0  0  0999 V3000
M  V30 BEGIN CTAB
M  V30 COUNTS 33 34 0 0 0
M  V30 BEGIN ATOM
M  V30 1 C 5.38683 -0.024887 0.752922 0
M  V30 2 O 4.54505 -0.263983 -0.366789 0
M  V30 3 C 3.16338 -0.189193 -0.203519 0
M  V30 4 C 2.33474 -0.414889 -1.26437 0
M  V30 5 C 0.946367 -0.350254 -1.14535 0
M  V30 6 C 0.367302 -0.0546192 0.0550286 0
M  V30 7 C 1.21863 0.174027 1.13107 0
M  V30 8 C 2.59003 0.11074 1.01591 0
M  V30 9 C -1.09106 0.0316008 0.258492 0
M  V30 10 N -1.59126 0.32885 1.47497 0
M  V30 11 C -2.89928 0.428936 1.75486 0
M  V30 12 C -3.38426 0.748211 3.06733 0
M  V30 13 N -3.77272 0.995911 4.12179 0
M  V30 14 C -3.84605 0.222318 0.761941 0
M  V30 15 N -5.23996 0.319188 1.01835 0
M  V30 16 C -3.35581 -0.0854005 -0.500534 0
M  V30 17 N -4.32962 -0.29767 -1.52078 0
M  V30 18 C -2.00254 -0.179513 -0.749668 0
M  V30 19 C 2.95779 -0.736836 -2.57228 0
M  V30 20 F 3.72468 -1.881 -2.50539 0
M  V30 21 F 1.96373 -0.860362 -3.52331 0
M  V30 22 F 3.76839 0.303002 -2.97393 0
M  V30 23 H 5.03057 -0.608725 1.64643 0
M  V30 24 H 6.41556 -0.381657 0.563986 0
M  V30 25 H 5.41086 1.04513 1.04008 0
M  V30 26 H 0.316709 -0.533344 -2.001 0
M  V30 27 H 0.75507 0.411374 2.09495 0
M  V30 28 H 3.21477 0.293673 1.87042 0
M  V30 29 H -5.90236 -0.1811 0.418419 0
M  V30 30 H -5.60454 0.890356 1.80654 0
M  V30 31 H -5.04754 -1.03996 -1.36801 0
M  V30 32 H -4.37458 0.233865 -2.40409 0
M  V30 33 H -1.66885 -0.422934 -1.75447 0
M  V30 END ATOM
M  V30 BEGIN BOND
M  V30 1 1 1 2
M  V30 2 1 2 3
M  V30 3 2 3 4
M  V30 4 1 4 5
M  V30 5 2 5 6
M  V30 6 1 6 7
M  V30 7 2 7 8
M  V30 8 1 6 9
M  V30 9 2 9 10
M  V30 10 1 10 11
M  V30 11 1 11 12
M  V30 12 3 12 13
M  V30 13 2 11 14
M  V30 14 1 14 15
M  V30 15 1 14 16
M  V30 16 1 16 17
M  V30 17 2 16 18
M  V30 18 1 4 19
M  V30 19 1 19 20
M  V30 20 1 19 21
M  V30 21 1 19 22
M  V30 22 1 8 3
M  V30 23 1 18 9
M  V30 24 1 1 23
M  V30 25 1 1 24
M  V30 26 1 1 25
M  V30 27 1 5 26
M  V30 28 1 7 27
M  V30 29 1 8 28
M  V30 30 1 15 29
M  V30 31 1 15 30
M  V30 32 1 17 31
M  V30 33 1 17 32
M  V30 34 1 18 33
M  V30 END BOND
M  V30 END CTAB
M  END
