
     RDKit          3D

  0  0  0  0  0  0  0  0  0  0999 V3000
M  V30 BEGIN CTAB
M  V30 COUNTS 36 36 0 0 0
M  V30 BEGIN ATOM
M  V30 1 C 5.35886 -0.425532 -0.00530027 0
M  V30 2 C 3.87123 -0.391529 0.255303 0
M  V30 3 C 3.12562 -1.33658 -0.677291 0
M  V30 4 C 1.6558 -1.31539 -0.433423 0
M  V30 5 S 0.908784 0.280615 -0.664154 0
M  V30 6 O 1.35626 0.99428 -1.89716 0
M  V30 7 C -0.809829 0.301474 -0.377246 0
M  V30 8 C -1.6572 -0.0814283 -1.42216 0
M  V30 9 N -1.12294 -0.487156 -2.69065 0
M  V30 10 C -3.02913 -0.0902054 -1.29359 0
M  V30 11 C -3.58424 0.298224 -0.0740658 0
M  V30 12 C -2.7253 0.67226 0.942756 0
M  V30 13 C -1.35135 0.687128 0.831732 0
M  V30 14 S -0.334915 1.18226 2.16686 0
M  V30 15 N -1.38564 1.60612 3.49823 0
M  V30 16 O 0.531316 2.34957 1.80022 0
M  V30 17 O 0.540007 0.0628544 2.65302 0
M  V30 18 C -5.02848 0.299151 0.0919394 0
M  V30 19 O -5.8339 -0.0844152 -0.95967 0
M  V30 20 O -5.55325 0.640026 1.1667 0
M  V30 21 H 5.52802 -0.200636 -1.06801 0
M  V30 22 H 5.80641 0.407246 0.58311 0
M  V30 23 H 5.83375 -1.35827 0.335505 0
M  V30 24 H 3.6224 -0.583323 1.31251 0
M  V30 25 H 3.5379 0.653543 0.0312814 0
M  V30 26 H 3.42735 -1.1235 -1.70571 0
M  V30 27 H 3.49617 -2.35557 -0.432162 0
M  V30 28 H 1.46343 -1.70475 0.58342 0
M  V30 29 H 1.17414 -2.0132 -1.17906 0
M  V30 30 H -1.28912 -1.4646 -3.03936 0
M  V30 31 H -0.576918 0.226278 -3.22736 0
M  V30 32 H -3.67129 -0.387789 -2.10753 0
M  V30 33 H -3.14772 0.978266 1.90188 0
M  V30 34 H -1.97756 2.4409 3.20791 0
M  V30 35 H -2.04626 0.809595 3.61288 0
M  V30 36 H -6.11244 0.514073 -1.72134 0
M  V30 END ATOM
M  V30 BEGIN BOND
M  V30 1 1 1 2
M  V30 2 1 2 3
M  V30 3 1 3 4
M  V30 4 1 4 5
M  V30 5 2 5 6
M  V30 6 1 5 7
M  V30 7 2 7 8
M  V30 8 1 8 9
M  V30 9 1 8 10
M  V30 10 2 10 11
M  V30 11 1 11 12
M  V30 12 2 12 13
M  V30 13 1 13 14
M  V30 14 1 14 15
M  V30 15 2 14 16
M  V30 16 2 14 17
M  V30 17 1 11 18
M  V30 18 1 18 19
M  V30 19 2 18 20
M  V30 20 1 13 7
M  V30 21 1 1 21
M  V30 22 1 1 22
M  V30 23 1 1 23
M  V30 24 1 2 24
M  V30 25 1 2 25
M  V30 26 1 3 26
M  V30 27 1 3 27
M  V30 28 1 4 28
M  V30 29 1 4 29
M  V30 30 1 9 30
M  V30 31 1 9 31
M  V30 32 1 10 32
M  V30 33 1 12 33
M  V30 34 1 15 34
M  V30 35 1 15 35
M  V30 36 1 19 36
M  V30 END BOND
M  V30 END CTAB
M  END
