
     RDKit          3D

  0  0  0  0  0  0  0  0  0  0999 V3000
M  V30 BEGIN CTAB
M  V30 COUNTS 25 26 0 0 0
M  V30 BEGIN ATOM
M  V30 1 N -1.36053 -1.98946 -0.0711809 0
M  V30 2 C -1.77349 -0.642051 0.00198123 0
M  V30 3 C -2.90825 -0.378529 0.76776 0
M  V30 4 C -3.37414 0.906335 0.887267 0
M  V30 5 C -2.68003 1.91439 0.225585 0
M  V30 6 C -1.55707 1.65967 -0.532914 0
M  V30 7 C -1.09063 0.356968 -0.650053 0
M  V30 8 C 0.0994136 0.0392843 -1.44431 0
M  V30 9 C 1.31685 -0.226957 -0.618926 0
M  V30 10 N 1.72535 -1.44059 -0.146632 0
M  V30 11 N 2.84247 -1.31301 0.548999 0
M  V30 12 C 3.19332 -0.0123764 0.548101 0
M  V30 13 N 2.2486 0.629873 -0.170129 0
M  V30 14 N 4.34296 0.54518 1.18821 0
M  V30 15 H -1.01476 -2.45296 0.78237 0
M  V30 16 H -1.40739 -2.49307 -0.960958 0
M  V30 17 H -3.4549 -1.15578 1.2877 0
M  V30 18 H -4.25149 1.09957 1.48086 0
M  V30 19 H -3.08044 2.91713 0.347216 0
M  V30 20 H -1.06853 2.49686 -1.0193 0
M  V30 21 H -0.0433866 -0.843983 -2.11364 0
M  V30 22 H 0.318976 0.897646 -2.14469 0
M  V30 23 H 3.39597 -2.05723 1.03513 0
M  V30 24 H 4.99172 1.19575 0.661439 0
M  V30 25 H 4.58942 0.347324 2.16675 0
M  V30 END ATOM
M  V30 BEGIN BOND
M  V30 1 1 1 2
M  V30 2 2 2 3
M  V30 3 1 3 4
M  V30 4 2 4 5
M  V30 5 1 5 6
M  V30 6 2 6 7
M  V30 7 1 7 8
M  V30 8 1 8 9
M  V30 9 2 9 10
M  V30 10 1 10 11
M  V30 11 1 11 12
M  V30 12 2 12 13
M  V30 13 1 12 14
M  V30 14 1 7 2
M  V30 15 1 13 9
M  V30 16 1 1 15
M  V30 17 1 1 16
M  V30 18 1 3 17
M  V30 19 1 4 18
M  V30 20 1 5 19
M  V30 21 1 6 20
M  V30 22 1 8 21
M  V30 23 1 8 22
M  V30 24 1 11 23
M  V30 25 1 14 24
M  V30 26 1 14 25
M  V30 END BOND
M  V30 END CTAB
M  END
