
     RDKit          3D

  0  0  0  0  0  0  0  0  0  0999 V3000
M  V30 BEGIN CTAB
M  V30 COUNTS 36 38 0 0 0
M  V30 BEGIN ATOM
M  V30 1 N -0.17922 5.00725 0.393587 0
M  V30 2 N -0.891239 3.87698 -0.139198 0
M  V30 3 C -0.621301 2.55062 0.302052 0
M  V30 4 O 0.262053 2.40412 1.16042 0
M  V30 5 C -1.34891 1.4418 -0.241225 0
M  V30 6 N -2.44378 1.49237 -1.04294 0
M  V30 7 N -2.81573 0.280328 -1.38458 0
M  V30 8 N -1.98472 -0.559637 -0.824195 0
M  V30 9 C -1.04212 0.0990144 -0.0988344 0
M  V30 10 C -0.00921409 -0.558147 0.726544 0
M  V30 11 N 1.32073 -0.180792 0.494948 0
M  V30 12 C 1.83158 -0.282756 -0.808454 0
M  V30 13 C 3.35547 -0.418479 -0.632106 0
M  V30 14 C 3.61998 -0.337118 0.870167 0
M  V30 15 C 2.25165 -0.760268 1.42232 0
M  V30 16 C -2.15675 -1.98226 -0.986537 0
M  V30 17 N -1.67586 -2.72778 -1.98695 0
M  V30 18 O -2.01051 -3.98343 -1.81013 0
M  V30 19 N -2.71073 -4.10238 -0.695624 0
M  V30 20 C -2.81743 -2.85584 -0.160727 0
M  V30 21 N -3.52555 -2.50093 1.03517 0
M  V30 22 H 0.771547 5.02384 -0.0394096 0
M  V30 23 H -0.713774 5.86156 0.271957 0
M  V30 24 H -1.59668 4.14311 -0.870546 0
M  V30 25 H -0.102334 -1.70788 0.467213 0
M  V30 26 H -0.340954 -0.568641 1.79824 0
M  V30 27 H 1.49164 -1.14602 -1.39771 0
M  V30 28 H 1.64183 0.636072 -1.42583 0
M  V30 29 H 3.90226 0.364818 -1.17211 0
M  V30 30 H 3.7434 -1.40233 -0.933722 0
M  V30 31 H 4.35541 -1.03539 1.21856 0
M  V30 32 H 3.77804 0.729914 1.13982 0
M  V30 33 H 2.20866 -1.83374 1.51566 0
M  V30 34 H 2.07887 -0.229242 2.41823 0
M  V30 35 H -4.5625 -2.69115 1.09596 0
M  V30 36 H -3.06382 -2.04758 1.84937 0
M  V30 END ATOM
M  V30 BEGIN BOND
M  V30 1 1 1 2
M  V30 2 1 2 3
M  V30 3 2 3 4
M  V30 4 1 3 5
M  V30 5 1 5 6
M  V30 6 2 6 7
M  V30 7 1 7 8
M  V30 8 1 8 9
M  V30 9 1 9 10
M  V30 10 1 10 11
M  V30 11 1 11 12
M  V30 12 1 12 13
M  V30 13 1 13 14
M  V30 14 1 14 15
M  V30 15 1 8 16
M  V30 16 2 16 17
M  V30 17 1 17 18
M  V30 18 1 18 19
M  V30 19 2 19 20
M  V30 20 1 20 21
M  V30 21 2 9 5
M  V30 22 1 15 11
M  V30 23 1 20 16
M  V30 24 1 1 22
M  V30 25 1 1 23
M  V30 26 1 2 24
M  V30 27 1 10 25
M  V30 28 1 10 26
M  V30 29 1 12 27
M  V30 30 1 12 28
M  V30 31 1 13 29
M  V30 32 1 13 30
M  V30 33 1 14 31
M  V30 34 1 14 32
M  V30 35 1 15 33
M  V30 36 1 15 34
M  V30 37 1 21 35
M  V30 38 1 21 36
M  V30 END BOND
M  V30 END CTAB
M  END
