
     RDKit          3D

  0  0  0  0  0  0  0  0  0  0999 V3000
M  V30 BEGIN CTAB
M  V30 COUNTS 36 38 0 0 0
M  V30 BEGIN ATOM
M  V30 1 N -3.71522 0.376572 0.431672 0
M  V30 2 C -2.4499 0.908811 0.856957 0
M  V30 3 C -1.26872 0.196549 0.266211 0
M  V30 4 C -1.29971 0.290525 -1.24641 0
M  V30 5 C 0.0112508 -0.25649 -1.79465 0 CFG=2
M  V30 6 C 0.0589252 -1.71701 -1.45065 0
M  V30 7 C 0.0718879 -1.82555 0.0678175 0 CFG=2
M  V30 8 C -1.17348 -1.24187 0.671155 0
M  V30 9 C 1.33091 -1.132 0.534574 0
M  V30 10 C 1.23344 0.339243 0.227183 0
M  V30 11 C -0.0294105 0.893901 0.825489 0
M  V30 12 C 1.1934 0.511002 -1.26331 0
M  V30 13 C 2.3863 1.0969 0.860001 0
M  V30 14 N 3.66482 0.642057 0.383441 0
M  V30 15 H -4.36531 1.1812 0.30113 0
M  V30 16 H -4.10577 -0.205158 1.20041 0
M  V30 17 H -2.35866 1.98436 0.567357 0
M  V30 18 H -2.37528 0.868975 1.96349 0
M  V30 19 H -1.5217 1.29146 -1.61435 0
M  V30 20 H -2.0883 -0.418879 -1.58521 0
M  V30 21 H -0.00258971 -0.17189 -2.90427 0
M  V30 22 H -0.796217 -2.2209 -1.89938 0
M  V30 23 H 1.03889 -2.15768 -1.78773 0
M  V30 24 H 0.187268 -2.89961 0.305254 0
M  V30 25 H -1.05452 -1.28507 1.77434 0
M  V30 26 H -2.02333 -1.86176 0.377507 0
M  V30 27 H 1.59977 -1.34807 1.56991 0
M  V30 28 H 2.16261 -1.556 -0.102358 0
M  V30 29 H -0.152678 1.96592 0.683317 0
M  V30 30 H -0.0449192 0.658828 1.92814 0
M  V30 31 H 2.09135 0.148397 -1.77334 0
M  V30 32 H 0.983647 1.59508 -1.47815 0
M  V30 33 H 2.31094 2.17957 0.632117 0
M  V30 34 H 2.26758 0.997549 1.96525 0
M  V30 35 H 3.84188 1.13386 -0.54004 0
M  V30 36 H 4.39083 1.03717 1.04715 0
M  V30 END ATOM
M  V30 BEGIN BOND
M  V30 1 1 1 2
M  V30 2 1 2 3
M  V30 3 1 3 4
M  V30 4 1 4 5
M  V30 5 1 5 6
M  V30 6 1 6 7
M  V30 7 1 7 8
M  V30 8 1 7 9
M  V30 9 1 9 10
M  V30 10 1 10 11
M  V30 11 1 10 12
M  V30 12 1 10 13
M  V30 13 1 13 14
M  V30 14 1 8 3
M  V30 15 1 11 3
M  V30 16 1 12 5
M  V30 17 1 1 15
M  V30 18 1 1 16
M  V30 19 1 2 17
M  V30 20 1 2 18
M  V30 21 1 4 19
M  V30 22 1 4 20
M  V30 23 1 5 21 CFG=3
M  V30 24 1 6 22
M  V30 25 1 6 23
M  V30 26 1 7 24 CFG=3
M  V30 27 1 8 25
M  V30 28 1 8 26
M  V30 29 1 9 27
M  V30 30 1 9 28
M  V30 31 1 11 29
M  V30 32 1 11 30
M  V30 33 1 12 31
M  V30 34 1 12 32
M  V30 35 1 13 33
M  V30 36 1 13 34
M  V30 37 1 14 35
M  V30 38 1 14 36
M  V30 END BOND
M  V30 END CTAB
M  END
