
     RDKit          3D

  0  0  0  0  0  0  0  0  0  0999 V3000
M  V30 BEGIN CTAB
M  V30 COUNTS 26 28 0 0 0
M  V30 BEGIN ATOM
M  V30 1 N -2.84124 -2.10288 0.146684 0
M  V30 2 C -1.6416 -1.34283 0.104836 0
M  V30 3 C -1.74771 0.0148143 -0.0813534 0
M  V30 4 N -2.99539 0.653985 -0.228394 0
M  V30 5 C -0.579006 0.741213 -0.12024 0
M  V30 6 C -0.593419 2.10709 -0.302974 0
M  V30 7 C 0.6024 2.82062 -0.338794 0
M  V30 8 C 1.80494 2.16411 -0.191703 0
M  V30 9 C 1.85503 0.788818 -0.00594351 0
M  V30 10 C 0.65941 0.138031 0.0215224 0
M  V30 11 C 0.7765 -1.20028 0.205685 0
M  V30 12 C 2.21787 -1.51642 0.319258 0
M  V30 13 C 2.92723 -0.198633 0.178755 0
M  V30 14 C -0.390062 -1.95717 0.248737 0
M  V30 15 H -3.64573 -1.80829 0.745808 0
M  V30 16 H -2.91866 -2.98325 -0.440863 0
M  V30 17 H -3.27409 1.53772 0.250108 0
M  V30 18 H -3.74726 0.24858 -0.862579 0
M  V30 19 H -1.55688 2.58461 -0.414385 0
M  V30 20 H 0.577429 3.89128 -0.482726 0
M  V30 21 H 2.71584 2.74206 -0.223582 0
M  V30 22 H 2.45508 -1.92743 1.32123 0
M  V30 23 H 2.52868 -2.20587 -0.506426 0
M  V30 24 H 3.60649 0.0279637 1.02403 0
M  V30 25 H 3.53805 -0.204707 -0.758941 0
M  V30 26 H -0.333923 -3.01312 0.392249 0
M  V30 END ATOM
M  V30 BEGIN BOND
M  V30 1 1 1 2
M  V30 2 2 2 3
M  V30 3 1 3 4
M  V30 4 1 3 5
M  V30 5 2 5 6
M  V30 6 1 6 7
M  V30 7 2 7 8
M  V30 8 1 8 9
M  V30 9 2 9 10
M  V30 10 1 10 11
M  V30 11 1 11 12
M  V30 12 1 12 13
M  V30 13 2 11 14
M  V30 14 1 14 2
M  V30 15 1 10 5
M  V30 16 1 13 9
M  V30 17 1 1 15
M  V30 18 1 1 16
M  V30 19 1 4 17
M  V30 20 1 4 18
M  V30 21 1 6 19
M  V30 22 1 7 20
M  V30 23 1 8 21
M  V30 24 1 12 22
M  V30 25 1 12 23
M  V30 26 1 13 24
M  V30 27 1 13 25
M  V30 28 1 14 26
M  V30 END BOND
M  V30 END CTAB
M  END
