
     RDKit          3D

  0  0  0  0  0  0  0  0  0  0999 V3000
M  V30 BEGIN CTAB
M  V30 COUNTS 23 24 0 0 0
M  V30 BEGIN ATOM
M  V30 1 C -2.2277 -0.692618 0.455996 0
M  V30 2 C -1.23052 0.322247 0.114784 0
M  V30 3 C -1.60953 1.66339 -0.0929983 0
M  V30 4 C -0.683738 2.63081 -0.417146 0
M  V30 5 N 0.606786 2.28719 -0.537326 0
M  V30 6 C 1.0503 1.03626 -0.356543 0
M  V30 7 C 0.118099 0.0616029 -0.0299993 0
M  V30 8 C 0.61323 -1.20352 0.146339 0
M  V30 9 N -0.248267 -2.26123 0.481903 0
M  V30 10 N 1.94936 -1.4696 0.00437033 0
M  V30 11 C 2.83741 -0.522462 -0.310489 0
M  V30 12 N 4.23792 -0.808823 -0.457898 0
M  V30 13 N 2.36503 0.723317 -0.486198 0
M  V30 14 C -3.01889 1.99868 0.0462443 0
M  V30 15 N -4.13586 2.28437 0.151334 0
M  V30 16 H -2.50453 -1.4046 -0.349648 0
M  V30 17 H -3.22706 -0.121556 0.476155 0
M  V30 18 H -2.24609 -1.06351 1.48222 0
M  V30 19 H -1.01549 3.66768 -0.57216 0
M  V30 20 H -0.386333 -2.44641 1.51413 0
M  V30 21 H -0.750122 -2.88829 -0.165769 0
M  V30 22 H 4.68324 -0.496146 -1.33988 0
M  V30 23 H 4.82275 -1.29681 0.242583 0
M  V30 END ATOM
M  V30 BEGIN BOND
M  V30 1 1 1 2
M  V30 2 2 2 3
M  V30 3 1 3 4
M  V30 4 2 4 5
M  V30 5 1 5 6
M  V30 6 2 6 7
M  V30 7 1 7 8
M  V30 8 1 8 9
M  V30 9 2 8 10
M  V30 10 1 10 11
M  V30 11 1 11 12
M  V30 12 2 11 13
M  V30 13 1 3 14
M  V30 14 3 14 15
M  V30 15 1 7 2
M  V30 16 1 13 6
M  V30 17 1 1 16
M  V30 18 1 1 17
M  V30 19 1 1 18
M  V30 20 1 4 19
M  V30 21 1 9 20
M  V30 22 1 9 21
M  V30 23 1 12 22
M  V30 24 1 12 23
M  V30 END BOND
M  V30 END CTAB
M  END
