
     RDKit          3D

  0  0  0  0  0  0  0  0  0  0999 V3000
M  V30 BEGIN CTAB
M  V30 COUNTS 27 27 0 0 0
M  V30 BEGIN ATOM
M  V30 1 N -3.34545 0.939543 -0.654479 0
M  V30 2 C -2.1969 0.672662 0.14362 0
M  V30 3 C -1.96093 -0.822199 0.188439 0 CFG=1
M  V30 4 N -1.73794 -1.39929 -1.10429 0
M  V30 5 C -0.888814 -1.19204 1.18694 0
M  V30 6 C 0.41607 -0.557461 0.863782 0
M  V30 7 C 1.30804 -1.22035 0.0448898 0
M  V30 8 C 2.53865 -0.674568 -0.288625 0
M  V30 9 C 2.89948 0.578351 0.209493 0
M  V30 10 C 1.98725 1.21068 1.02212 0
M  V30 11 C 0.762034 0.676906 1.35942 0
M  V30 12 N 4.1574 1.15437 -0.121555 0 CHG=1
M  V30 13 O 5.07647 0.557033 -0.918665 0 CHG=-1
M  V30 14 O 4.41688 2.27398 0.355928 0
M  V30 15 H -3.45902 1.8806 -0.959829 0
M  V30 16 H -4.17147 0.456976 -0.468553 0
M  V30 17 H -2.31169 1.01336 1.18789 0
M  V30 18 H -1.3537 1.19835 -0.386173 0
M  V30 19 H -2.91268 -1.26809 0.582862 0
M  V30 20 H -2.66748 -1.6262 -1.55925 0
M  V30 21 H -1.29506 -0.685173 -1.72116 0
M  V30 22 H -0.745937 -2.2917 1.16491 0
M  V30 23 H -1.20286 -0.933739 2.20676 0
M  V30 24 H 1.09056 -2.19338 -0.374144 0
M  V30 25 H 3.25131 -1.17093 -0.924766 0
M  V30 26 H 2.25288 2.18904 1.41938 0
M  V30 27 H 0.092893 1.23327 2.00595 0
M  V30 END ATOM
M  V30 BEGIN BOND
M  V30 1 1 1 2
M  V30 2 1 2 3
M  V30 3 1 3 4
M  V30 4 1 3 5
M  V30 5 1 5 6
M  V30 6 2 6 7
M  V30 7 1 7 8
M  V30 8 2 8 9
M  V30 9 1 9 10
M  V30 10 2 10 11
M  V30 11 1 9 12
M  V30 12 1 12 13
M  V30 13 2 12 14
M  V30 14 1 11 6
M  V30 15 1 1 15
M  V30 16 1 1 16
M  V30 17 1 2 17
M  V30 18 1 2 18
M  V30 19 1 3 19 CFG=1
M  V30 20 1 4 20
M  V30 21 1 4 21
M  V30 22 1 5 22
M  V30 23 1 5 23
M  V30 24 1 7 24
M  V30 25 1 8 25
M  V30 26 1 10 26
M  V30 27 1 11 27
M  V30 END BOND
M  V30 END CTAB
M  END
