
     RDKit          3D

  0  0  0  0  0  0  0  0  0  0999 V3000
M  V30 BEGIN CTAB
M  V30 COUNTS 32 34 0 0 0
M  V30 BEGIN ATOM
M  V30 1 Cl -5.12829 3.273 0.508785 0
M  V30 2 C -4.761 1.54509 0.404388 0
M  V30 3 C -5.79581 0.610574 0.372258 0
M  V30 4 C -5.51751 -0.734074 0.291164 0
M  V30 5 C -4.19263 -1.09887 0.244517 0
M  V30 6 C -3.15423 -0.199735 0.274587 0
M  V30 7 C -3.45362 1.13688 0.355646 0
M  V30 8 C -1.75575 -0.626458 0.222994 0
M  V30 9 N -1.37252 -1.92117 0.14258 0
M  V30 10 N -0.0503582 -1.92155 0.116478 0
M  V30 11 C 0.41894 -0.66331 0.178023 0
M  V30 12 N -0.65236 0.140622 0.244394 0
M  V30 13 C 1.83749 -0.283864 0.171378 0
M  V30 14 C 2.83882 -1.22207 0.0988164 0
M  V30 15 C 4.18445 -0.873585 0.0918548 0
M  V30 16 N 5.21044 -1.85583 0.0163282 0
M  V30 17 C 4.48356 0.469965 0.161545 0
M  V30 18 C 3.52558 1.44825 0.235506 0
M  V30 19 C 2.20329 1.04367 0.238851 0
M  V30 20 N 3.93342 2.80423 0.303746 0
M  V30 21 H -6.82119 0.973162 0.412874 0
M  V30 22 H -6.32639 -1.43806 0.267536 0
M  V30 23 H -3.96515 -2.17453 0.17955 0
M  V30 24 H -2.66833 1.90414 0.383288 0
M  V30 25 H -2.01209 -2.75298 0.108391 0
M  V30 26 H 2.61434 -2.27417 0.0440507 0
M  V30 27 H 5.97208 -1.85127 -0.690759 0
M  V30 28 H 5.22509 -2.64924 0.706795 0
M  V30 29 H 5.52533 0.769576 0.157834 0
M  V30 30 H 1.44419 1.8164 0.297318 0
M  V30 31 H 4.67332 3.04421 1.00742 0
M  V30 32 H 3.53689 3.561 -0.304632 0
M  V30 END ATOM
M  V30 BEGIN BOND
M  V30 1 1 1 2
M  V30 2 2 2 3
M  V30 3 1 3 4
M  V30 4 2 4 5
M  V30 5 1 5 6
M  V30 6 2 6 7
M  V30 7 1 6 8
M  V30 8 1 8 9
M  V30 9 1 9 10
M  V30 10 2 10 11
M  V30 11 1 11 12
M  V30 12 1 11 13
M  V30 13 2 13 14
M  V30 14 1 14 15
M  V30 15 1 15 16
M  V30 16 2 15 17
M  V30 17 1 17 18
M  V30 18 2 18 19
M  V30 19 1 18 20
M  V30 20 1 7 2
M  V30 21 2 12 8
M  V30 22 1 19 13
M  V30 23 1 3 21
M  V30 24 1 4 22
M  V30 25 1 5 23
M  V30 26 1 7 24
M  V30 27 1 9 25
M  V30 28 1 14 26
M  V30 29 1 16 27
M  V30 30 1 16 28
M  V30 31 1 17 29
M  V30 32 1 19 30
M  V30 33 1 20 31
M  V30 34 1 20 32
M  V30 END BOND
M  V30 END CTAB
M  END
