
     RDKit          3D

  0  0  0  0  0  0  0  0  0  0999 V3000
M  V30 BEGIN CTAB
M  V30 COUNTS 21 21 0 0 0
M  V30 BEGIN ATOM
M  V30 1 C -3.04486 -0.653363 0.413026 0
M  V30 2 C -2.00291 0.395801 0.510562 0
M  V30 3 O -2.32166 1.5463 0.906385 0
M  V30 4 C -0.630705 0.082284 0.148593 0
M  V30 5 C -0.294424 -1.18424 -0.285628 0
M  V30 6 C 1.00925 -1.44113 -0.618052 0
M  V30 7 F 1.35587 -2.68982 -1.04914 0
M  V30 8 C 2.00421 -0.471249 -0.533269 0
M  V30 9 C 1.60804 0.770196 -0.0944996 0
M  V30 10 C 0.313511 1.09483 0.255795 0
M  V30 11 N -0.033353 2.39787 0.7027 0
M  V30 12 N 3.35084 -0.763676 -0.884538 0
M  V30 13 H -2.6992 -1.6389 0.812131 0
M  V30 14 H -3.92804 -0.314373 0.988714 0
M  V30 15 H -3.39017 -0.802992 -0.633427 0
M  V30 16 H -1.05926 -1.94433 -0.355306 0
M  V30 17 H 2.36921 1.5353 -0.0229244 0
M  V30 18 H -0.483327 3.06842 0.0484043 0
M  V30 19 H 0.144791 2.72118 1.67419 0
M  V30 20 H 3.6311 -1.3902 -1.66976 0
M  V30 21 H 4.10107 -0.317918 -0.313961 0
M  V30 END ATOM
M  V30 BEGIN BOND
M  V30 1 1 1 2
M  V30 2 2 2 3
M  V30 3 1 2 4
M  V30 4 2 4 5
M  V30 5 1 5 6
M  V30 6 1 6 7
M  V30 7 2 6 8
M  V30 8 1 8 9
M  V30 9 2 9 10
M  V30 10 1 10 11
M  V30 11 1 8 12
M  V30 12 1 10 4
M  V30 13 1 1 13
M  V30 14 1 1 14
M  V30 15 1 1 15
M  V30 16 1 5 16
M  V30 17 1 9 17
M  V30 18 1 11 18
M  V30 19 1 11 19
M  V30 20 1 12 20
M  V30 21 1 12 21
M  V30 END BOND
M  V30 END CTAB
M  END
