
     RDKit          3D

  0  0  0  0  0  0  0  0  0  0999 V3000
M  V30 BEGIN CTAB
M  V30 COUNTS 54 58 0 0 0
M  V30 BEGIN ATOM
M  V30 1 O -0.146629 -2.48119 2.12096 0
M  V30 2 C 0.535414 -1.61376 1.39955 0
M  V30 3 N -0.267339 -0.817626 0.5707 0
M  V30 4 N -1.70893 -0.908033 0.525025 0
M  V30 5 C -2.22029 0.0959606 -0.0112276 0
M  V30 6 C -1.16921 1.087 -0.453645 0
M  V30 7 C 0.0462728 0.218291 -0.386708 0
M  V30 8 C 0.11158 -0.505544 -1.71424 0
M  V30 9 C -0.338068 -0.076186 -2.93813 0
M  V30 10 C -0.0656973 -1.07803 -3.86984 0
M  V30 11 C 0.54831 -2.0779 -3.13265 0
M  V30 12 O 0.618471 -1.67792 -1.8878 0
M  V30 13 C -1.26672 2.22649 0.508523 0
M  V30 14 C -2.71924 2.50178 0.883624 0
M  V30 15 C -3.69221 2.0768 -0.229688 0
M  V30 16 C -3.59956 0.577973 -0.26113 0
M  V30 17 C -4.53325 -0.273321 -0.46898 0
M  V30 18 C -5.89921 0.112162 -0.718339 0
M  V30 19 C -6.75769 -0.43519 -1.65412 0
M  V30 20 C -7.96838 0.217736 -1.5638 0
M  V30 21 C -7.7952 1.14893 -0.563069 0
M  V30 22 O -6.56812 1.04151 -0.105989 0
M  V30 23 C 1.96839 -1.65882 1.60988 0
M  V30 24 S 2.87707 -0.471573 0.666969 0
M  V30 25 C 4.63839 -0.517894 0.92979 0
M  V30 26 N 5.4692 -1.2879 0.207364 0
M  V30 27 C 6.81311 -1.29433 0.433013 0
M  V30 28 N 7.67039 -2.1284 -0.36106 0
M  V30 29 C 7.35738 -0.511904 1.40749 0
M  V30 30 C 6.51099 0.282785 2.15521 0
M  V30 31 N 5.18615 0.260851 1.90073 0
M  V30 32 N 7.05296 1.10626 3.17195 0
M  V30 33 H -1.34046 1.4798 -1.45392 0
M  V30 34 H 0.947082 0.795379 -0.203532 0
M  V30 35 H -0.816311 0.831201 -3.23524 0
M  V30 36 H -0.252858 -1.13597 -4.91459 0
M  V30 37 H 0.917545 -3.02628 -3.47088 0
M  V30 38 H -0.698395 2.07323 1.4278 0
M  V30 39 H -0.888559 3.15139 0.023131 0
M  V30 40 H -2.87914 3.52007 1.22741 0
M  V30 41 H -2.94694 1.81498 1.73932 0
M  V30 42 H -3.30326 2.41429 -1.21135 0
M  V30 43 H -4.66266 2.46856 0.0310553 0
M  V30 44 H -4.29118 -1.35048 -0.457478 0
M  V30 45 H -6.54765 -1.25078 -2.36602 0
M  V30 46 H -8.87288 0.0670419 -2.1284 0
M  V30 47 H -8.51554 1.86185 -0.188318 0
M  V30 48 H 2.16804 -1.57503 2.72666 0
M  V30 49 H 2.36209 -2.71683 1.40373 0
M  V30 50 H 8.63657 -2.34961 -0.0705427 0
M  V30 51 H 7.33734 -2.53917 -1.26598 0
M  V30 52 H 8.42464 -0.533213 1.56746 0
M  V30 53 H 8.06749 1.2862 3.23647 0
M  V30 54 H 6.4667 1.57437 3.90468 0
M  V30 END ATOM
M  V30 BEGIN BOND
M  V30 1 2 1 2
M  V30 2 1 2 3
M  V30 3 1 3 4
M  V30 4 2 4 5
M  V30 5 1 5 6
M  V30 6 1 6 7
M  V30 7 1 7 8
M  V30 8 2 8 9
M  V30 9 1 9 10
M  V30 10 2 10 11
M  V30 11 1 11 12
M  V30 12 1 6 13
M  V30 13 1 13 14
M  V30 14 1 14 15
M  V30 15 1 15 16
M  V30 16 2 16 17 CFG=2
M  V30 17 1 17 18
M  V30 18 2 18 19
M  V30 19 1 19 20
M  V30 20 2 20 21
M  V30 21 1 21 22
M  V30 22 1 2 23
M  V30 23 1 23 24
M  V30 24 1 24 25
M  V30 25 2 25 26
M  V30 26 1 26 27
M  V30 27 1 27 28
M  V30 28 2 27 29
M  V30 29 1 29 30
M  V30 30 2 30 31
M  V30 31 1 30 32
M  V30 32 1 7 3
M  V30 33 1 12 8
M  V30 34 1 22 18
M  V30 35 1 31 25
M  V30 36 1 16 5
M  V30 37 1 6 33
M  V30 38 1 7 34
M  V30 39 1 9 35
M  V30 40 1 10 36
M  V30 41 1 11 37
M  V30 42 1 13 38
M  V30 43 1 13 39
M  V30 44 1 14 40
M  V30 45 1 14 41
M  V30 46 1 15 42
M  V30 47 1 15 43
M  V30 48 1 17 44
M  V30 49 1 19 45
M  V30 50 1 20 46
M  V30 51 1 21 47
M  V30 52 1 23 48
M  V30 53 1 23 49
M  V30 54 1 28 50
M  V30 55 1 28 51
M  V30 56 1 29 52
M  V30 57 1 32 53
M  V30 58 1 32 54
M  V30 END BOND
M  V30 END CTAB
M  END
