
     RDKit          3D

  0  0  0  0  0  0  0  0  0  0999 V3000
M  V30 BEGIN CTAB
M  V30 COUNTS 30 31 0 0 0
M  V30 BEGIN ATOM
M  V30 1 N 3.79596 2.42535 0.0857807 0
M  V30 2 C 3.30358 1.11873 -0.131231 0
M  V30 3 N 2.36078 0.799983 -1.01031 0
M  V30 4 C 1.88267 -0.436608 -1.22786 0
M  V30 5 C 0.827764 -0.762544 -2.21802 0
M  V30 6 O -0.432422 -0.998849 -1.69923 0
M  V30 7 C -1.13541 -0.0573215 -0.981712 0
M  V30 8 O -0.598731 1.0627 -0.798194 0
M  V30 9 C -2.47389 -0.318372 -0.432331 0
M  V30 10 C -3.22004 -1.46255 -0.523666 0
M  V30 11 C -4.39875 -1.23827 0.140571 0
M  V30 12 C -4.37951 0.0419394 0.640647 0
M  V30 13 N -3.19966 0.569557 0.275078 0
M  V30 14 C -2.80056 1.93538 0.623796 0
M  V30 15 N 2.43846 -1.42015 -0.460934 0
M  V30 16 C 3.39745 -1.18044 0.451176 0
M  V30 17 N 3.82396 0.107607 0.605992 0
M  V30 18 N 3.95114 -2.22923 1.22984 0
M  V30 19 H 4.46928 2.8149 -0.593208 0
M  V30 20 H 3.48742 2.96435 0.897971 0
M  V30 21 H 0.866055 0.040744 -2.98457 0
M  V30 22 H 1.20674 -1.6753 -2.76449 0
M  V30 23 H -2.92398 -2.36918 -1.02887 0
M  V30 24 H -5.24231 -1.92522 0.278704 0
M  V30 25 H -5.17848 0.516795 1.21935 0
M  V30 26 H -2.71881 2.58137 -0.268715 0
M  V30 27 H -1.82598 1.927 1.15345 0
M  V30 28 H -3.57719 2.36644 1.27653 0
M  V30 29 H 4.6163 -2.88355 0.784486 0
M  V30 30 H 3.67817 -2.31524 2.22091 0
M  V30 END ATOM
M  V30 BEGIN BOND
M  V30 1 1 1 2
M  V30 2 2 2 3
M  V30 3 1 3 4
M  V30 4 1 4 5
M  V30 5 1 5 6
M  V30 6 1 6 7
M  V30 7 2 7 8
M  V30 8 1 7 9
M  V30 9 2 9 10
M  V30 10 1 10 11
M  V30 11 2 11 12
M  V30 12 1 12 13
M  V30 13 1 13 14
M  V30 14 2 4 15
M  V30 15 1 15 16
M  V30 16 2 16 17
M  V30 17 1 16 18
M  V30 18 1 17 2
M  V30 19 1 13 9
M  V30 20 1 1 19
M  V30 21 1 1 20
M  V30 22 1 5 21
M  V30 23 1 5 22
M  V30 24 1 10 23
M  V30 25 1 11 24
M  V30 26 1 12 25
M  V30 27 1 14 26
M  V30 28 1 14 27
M  V30 29 1 14 28
M  V30 30 1 18 29
M  V30 31 1 18 30
M  V30 END BOND
M  V30 END CTAB
M  END
