
     RDKit          3D

  0  0  0  0  0  0  0  0  0  0999 V3000
M  V30 BEGIN CTAB
M  V30 COUNTS 20 19 0 0 0
M  V30 BEGIN ATOM
M  V30 1 N 1.7573 -1.07224 0.44119 0
M  V30 2 C 1.38418 0.245819 0.0818342 0
M  V30 3 N 2.21326 0.984959 -0.55309 0
M  V30 4 N 3.46542 0.464323 -0.872303 0
M  V30 5 N 0.108363 0.78393 0.404158 0
M  V30 6 C -1.09259 0.00321659 0.4365 0
M  V30 7 C -2.23772 0.836112 0.799463 0
M  V30 8 C -3.19143 1.51252 1.09431 0
M  V30 9 C -1.37875 -0.649134 -0.900311 0
M  V30 10 O -2.5329 -1.38699 -0.833263 0
M  V30 11 H 2.75477 -1.36062 0.496656 0
M  V30 12 H 1.05493 -1.82197 0.66874 0
M  V30 13 H 3.70603 0.100644 -1.82261 0
M  V30 14 H 4.20167 0.431393 -0.138884 0
M  V30 15 H 0.0532096 1.81112 0.629515 0
M  V30 16 H -1.0138 -0.798814 1.19934 0
M  V30 17 H -4.0283 2.10049 1.34216 0
M  V30 18 H -1.48588 0.125921 -1.6867 0
M  V30 19 H -0.537856 -1.29742 -1.20606 0
M  V30 20 H -3.19989 -1.01327 -0.200076 0
M  V30 END ATOM
M  V30 BEGIN BOND
M  V30 1 1 1 2
M  V30 2 2 2 3 CFG=2
M  V30 3 1 3 4
M  V30 4 1 2 5
M  V30 5 1 5 6
M  V30 6 1 6 7
M  V30 7 3 7 8
M  V30 8 1 6 9
M  V30 9 1 9 10
M  V30 10 1 1 11
M  V30 11 1 1 12
M  V30 12 1 4 13
M  V30 13 1 4 14
M  V30 14 1 5 15
M  V30 15 1 6 16
M  V30 16 1 8 17
M  V30 17 1 9 18
M  V30 18 1 9 19
M  V30 19 1 10 20
M  V30 END BOND
M  V30 END CTAB
M  END
