
     RDKit          3D

  0  0  0  0  0  0  0  0  0  0999 V3000
M  V30 BEGIN CTAB
M  V30 COUNTS 25 24 0 0 0
M  V30 BEGIN ATOM
M  V30 1 N 4.07379 0.176744 0.602342 0
M  V30 2 N 3.01421 0.0528745 -0.299698 0
M  V30 3 C 1.68503 -0.0320122 0.19695 0
M  V30 4 O 1.55045 0.0112068 1.44321 0
M  V30 5 C 0.607227 -0.160299 -0.77294 0
M  V30 6 C -0.781027 -0.219253 -0.30124 0
M  V30 7 C -1.18555 1.01992 0.461231 0
M  V30 8 N -2.57762 0.896852 0.898999 0
M  V30 9 C -1.70063 -0.272238 -1.52574 0
M  V30 10 C -1.12845 -1.40414 0.550967 0
M  V30 11 H 3.76863 -0.0568691 1.57393 0
M  V30 12 H 4.52121 1.12596 0.556337 0
M  V30 13 H 3.22866 0.0255599 -1.32706 0
M  V30 14 H 0.847286 -1.06851 -1.40379 0
M  V30 15 H 0.716758 0.687676 -1.50249 0
M  V30 16 H -0.606685 1.12657 1.39996 0
M  V30 17 H -1.05339 1.9067 -0.192121 0
M  V30 18 H -2.92938 1.86489 1.03087 0
M  V30 19 H -2.59253 0.334728 1.77298 0
M  V30 20 H -1.57603 -1.30276 -1.94345 0
M  V30 21 H -1.32829 0.481447 -2.26424 0
M  V30 22 H -2.74434 -0.117623 -1.26315 0
M  V30 23 H -2.2222 -1.57039 0.454186 0
M  V30 24 H -0.624296 -2.31498 0.214815 0
M  V30 25 H -0.962836 -1.19206 1.63915 0
M  V30 END ATOM
M  V30 BEGIN BOND
M  V30 1 1 1 2
M  V30 2 1 2 3
M  V30 3 2 3 4
M  V30 4 1 3 5
M  V30 5 1 5 6
M  V30 6 1 6 7
M  V30 7 1 7 8
M  V30 8 1 6 9
M  V30 9 1 6 10
M  V30 10 1 1 11
M  V30 11 1 1 12
M  V30 12 1 2 13
M  V30 13 1 5 14
M  V30 14 1 5 15
M  V30 15 1 7 16
M  V30 16 1 7 17
M  V30 17 1 8 18
M  V30 18 1 8 19
M  V30 19 1 9 20
M  V30 20 1 9 21
M  V30 21 1 9 22
M  V30 22 1 10 23
M  V30 23 1 10 24
M  V30 24 1 10 25
M  V30 END BOND
M  V30 END CTAB
M  END
