
     RDKit          3D

  0  0  0  0  0  0  0  0  0  0999 V3000
M  V30 BEGIN CTAB
M  V30 COUNTS 53 55 0 0 0
M  V30 BEGIN ATOM
M  V30 1 C -4.44204 0.0451457 -1.35669 0
M  V30 2 C -5.22847 0.636981 -0.269647 0
M  V30 3 C -5.03897 0.208508 1.03872 0
M  V30 4 C -5.81036 0.775892 2.03415 0
M  V30 5 C -6.76701 1.76008 1.76895 0
M  V30 6 C -6.95111 2.18211 0.472768 0
M  V30 7 F -7.8694 3.13136 0.19592 0
M  V30 8 C -6.17862 1.60934 -0.503964 0
M  V30 9 C -4.01927 -0.823598 1.2905 0
M  V30 10 O -2.73067 -0.240132 1.10267 0
M  V30 11 C -1.69898 -0.933286 0.510936 0
M  V30 12 C -0.473728 -0.269297 0.361971 0
M  V30 13 C 0.600931 -0.897184 -0.218802 0
M  V30 14 N 0.399531 -2.17162 -0.627786 0
M  V30 15 C -0.744503 -2.83744 -0.505762 0
M  V30 16 N -0.925976 -4.17461 -0.943501 0
M  V30 17 N -1.78103 -2.19183 0.0693441 0
M  V30 18 C 1.88919 -0.240122 -0.393313 0
M  V30 19 C 2.90727 -0.965894 -1.00787 0
M  V30 20 C 4.14535 -0.387935 -1.19454 0
M  V30 21 C 4.43007 0.898243 -0.794734 0
M  V30 22 C 5.72963 1.52007 -0.987582 0
M  V30 23 C 6.7242 1.38558 0.111614 0 CFG=2
M  V30 24 N 7.92716 2.10785 -0.357714 0
M  V30 25 C 7.16924 0.00270497 0.39029 0
M  V30 26 O 6.25502 -0.877934 0.958853 0
M  V30 27 O 8.32742 -0.37955 0.130503 0
M  V30 28 C 3.42439 1.62024 -0.185688 0
M  V30 29 C 2.1617 1.04232 0.00903257 0
M  V30 30 C -4.02127 -1.34663 2.73373 0
M  V30 31 F -3.02388 -2.33364 2.81895 0
M  V30 32 F -5.18707 -1.89412 3.12422 0
M  V30 33 F -3.61436 -0.379708 3.61836 0
M  V30 34 H -4.26298 -1.038 -1.25351 0
M  V30 35 H -3.47809 0.550961 -1.56134 0
M  V30 36 H -5.02371 0.139259 -2.31572 0
M  V30 37 H -5.71748 0.481881 3.0752 0
M  V30 38 H -7.34637 2.17423 2.58173 0
M  V30 39 H -6.31862 1.93632 -1.52555 0
M  V30 40 H -4.10851 -1.73663 0.676322 0
M  V30 41 H -0.409753 0.739664 0.716692 0
M  V30 42 H -0.896327 -4.95788 -0.2671 0
M  V30 43 H -1.08934 -4.37961 -1.94164 0
M  V30 44 H 2.72138 -1.9795 -1.33524 0
M  V30 45 H 4.96897 -0.932373 -1.67533 0
M  V30 46 H 5.54974 2.61827 -1.17528 0
M  V30 47 H 6.19467 1.16113 -1.95224 0
M  V30 48 H 6.34429 1.87691 1.04079 0
M  V30 49 H 7.77445 3.13949 -0.308659 0
M  V30 50 H 8.06746 1.78838 -1.34296 0
M  V30 51 H 6.43701 -1.41154 1.78542 0
M  V30 52 H 3.6238 2.63715 0.138965 0
M  V30 53 H 1.38504 1.60996 0.483241 0
M  V30 END ATOM
M  V30 BEGIN BOND
M  V30 1 1 1 2
M  V30 2 2 2 3
M  V30 3 1 3 4
M  V30 4 2 4 5
M  V30 5 1 5 6
M  V30 6 1 6 7
M  V30 7 2 6 8
M  V30 8 1 3 9
M  V30 9 1 9 10
M  V30 10 1 10 11
M  V30 11 2 11 12
M  V30 12 1 12 13
M  V30 13 2 13 14
M  V30 14 1 14 15
M  V30 15 1 15 16
M  V30 16 2 15 17
M  V30 17 1 13 18
M  V30 18 2 18 19
M  V30 19 1 19 20
M  V30 20 2 20 21
M  V30 21 1 21 22
M  V30 22 1 22 23
M  V30 23 1 23 24
M  V30 24 1 23 25
M  V30 25 1 25 26
M  V30 26 2 25 27
M  V30 27 1 21 28
M  V30 28 2 28 29
M  V30 29 1 9 30
M  V30 30 1 30 31
M  V30 31 1 30 32
M  V30 32 1 30 33
M  V30 33 1 8 2
M  V30 34 1 17 11
M  V30 35 1 29 18
M  V30 36 1 1 34
M  V30 37 1 1 35
M  V30 38 1 1 36
M  V30 39 1 4 37
M  V30 40 1 5 38
M  V30 41 1 8 39
M  V30 42 1 9 40
M  V30 43 1 12 41
M  V30 44 1 16 42
M  V30 45 1 16 43
M  V30 46 1 19 44
M  V30 47 1 20 45
M  V30 48 1 22 46
M  V30 49 1 22 47
M  V30 50 1 23 48 CFG=1
M  V30 51 1 24 49
M  V30 52 1 24 50
M  V30 53 1 26 51
M  V30 54 1 28 52
M  V30 55 1 29 53
M  V30 END BOND
M  V30 END CTAB
M  END
