
     RDKit          3D

  0  0  0  0  0  0  0  0  0  0999 V3000
M  V30 BEGIN CTAB
M  V30 COUNTS 15 15 0 0 0
M  V30 BEGIN ATOM
M  V30 1 N 2.47926 -0.425887 0.125496 0
M  V30 2 C 1.22079 0.252402 -0.0593925 0
M  V30 3 N 1.17094 1.55525 -0.406063 0
M  V30 4 C -0.0121869 2.17812 -0.575958 0
M  V30 5 N -1.13608 1.45234 -0.386967 0
M  V30 6 C -1.14202 0.163994 -0.0443537 0
M  V30 7 C 0.0668855 -0.481103 0.131544 0
M  V30 8 O 0.156934 -1.8224 0.488587 0
M  V30 9 N -2.33385 -0.59048 0.152 0
M  V30 10 H 2.82309 -1.0822 -0.595984 0
M  V30 11 H 3.04314 -0.265568 0.969254 0
M  V30 12 H -0.0573123 3.23545 -0.857316 0
M  V30 13 H -0.657988 -2.39996 0.639268 0
M  V30 14 H -2.58312 -1.05772 1.05163 0
M  V30 15 H -3.03848 -0.712238 -0.631751 0
M  V30 END ATOM
M  V30 BEGIN BOND
M  V30 1 1 1 2
M  V30 2 2 2 3
M  V30 3 1 3 4
M  V30 4 2 4 5
M  V30 5 1 5 6
M  V30 6 2 6 7
M  V30 7 1 7 8
M  V30 8 1 6 9
M  V30 9 1 7 2
M  V30 10 1 1 10
M  V30 11 1 1 11
M  V30 12 1 4 12
M  V30 13 1 8 13
M  V30 14 1 9 14
M  V30 15 1 9 15
M  V30 END BOND
M  V30 END CTAB
M  END
