
     RDKit          3D

  0  0  0  0  0  0  0  0  0  0999 V3000
M  V30 BEGIN CTAB
M  V30 COUNTS 44 47 0 0 0
M  V30 BEGIN ATOM
M  V30 1 O -2.83391 -3.39858 -1.28261 0
M  V30 2 C -1.75847 -2.92645 -0.792728 0
M  V30 3 C -0.437896 -3.63722 -0.672761 0
M  V30 4 N 0.501117 -2.52422 -0.547856 0
M  V30 5 C -0.207639 -1.39705 -0.101259 0
M  V30 6 C -1.53289 -1.60575 -0.233797 0
M  V30 7 C -2.59028 -0.643774 0.128872 0
M  V30 8 N -2.56888 0.197191 1.17546 0
M  V30 9 C -3.70015 0.933655 1.20067 0
M  V30 10 C -4.46642 0.539577 0.124146 0
M  V30 11 N -3.756 -0.41818 -0.498296 0
M  V30 12 C -5.70758 1.13431 -0.1101 0
M  V30 13 C -6.20864 2.12262 0.71142 0
M  V30 14 C -5.43084 2.50729 1.78536 0
M  V30 15 C -4.20242 1.92752 2.02807 0
M  V30 16 N 0.294231 -0.159741 0.437492 0
M  V30 17 C 1.894 -2.64689 -0.854154 0
M  V30 18 C 2.70151 -1.42928 -0.657825 0
M  V30 19 C 3.39778 -1.23052 0.51289 0
M  V30 20 C 4.16281 -0.093764 0.703084 0
M  V30 21 C 4.23202 0.853297 -0.287263 0
M  V30 22 C 3.54953 0.690697 -1.47357 0
M  V30 23 C 2.78773 -0.464802 -1.635 0
M  V30 24 S 5.19606 2.29977 -0.0659895 0
M  V30 25 O 6.40628 2.03633 0.789974 0
M  V30 26 O 5.64346 2.77408 -1.44142 0
M  V30 27 N 4.27737 3.57 0.660823 0
M  V30 28 H -0.487388 -4.23866 0.253191 0
M  V30 29 H -0.286768 -4.21976 -1.59386 0
M  V30 30 H -4.08929 -0.908952 -1.35739 0
M  V30 31 H -6.28195 0.808361 -0.954382 0
M  V30 32 H -7.1727 2.59665 0.543568 0
M  V30 33 H -5.81109 3.28544 2.44262 0
M  V30 34 H -3.57859 2.21744 2.86633 0
M  V30 35 H 0.256502 0.663674 -0.218886 0
M  V30 36 H 0.66483 -0.0343276 1.3842 0
M  V30 37 H 2.36103 -3.49983 -0.261177 0
M  V30 38 H 2.01797 -3.0268 -1.91976 0
M  V30 39 H 3.38828 -1.93694 1.33715 0
M  V30 40 H 4.70488 0.0471806 1.63138 0
M  V30 41 H 3.6004 1.44253 -2.26794 0
M  V30 42 H 2.26997 -0.544413 -2.58746 0
M  V30 43 H 4.93351 4.18774 1.19553 0
M  V30 44 H 3.86853 4.15056 -0.0967405 0
M  V30 END ATOM
M  V30 BEGIN BOND
M  V30 1 2 1 2
M  V30 2 1 2 3
M  V30 3 1 3 4
M  V30 4 1 4 5
M  V30 5 2 5 6
M  V30 6 1 6 7
M  V30 7 2 7 8
M  V30 8 1 8 9
M  V30 9 2 9 10
M  V30 10 1 10 11
M  V30 11 1 10 12
M  V30 12 2 12 13
M  V30 13 1 13 14
M  V30 14 2 14 15
M  V30 15 1 5 16
M  V30 16 1 4 17
M  V30 17 1 17 18
M  V30 18 2 18 19
M  V30 19 1 19 20
M  V30 20 2 20 21
M  V30 21 1 21 22
M  V30 22 2 22 23
M  V30 23 1 21 24
M  V30 24 2 24 25
M  V30 25 2 24 26
M  V30 26 1 24 27
M  V30 27 1 6 2
M  V30 28 1 11 7
M  V30 29 1 23 18
M  V30 30 1 15 9
M  V30 31 1 3 28
M  V30 32 1 3 29
M  V30 33 1 11 30
M  V30 34 1 12 31
M  V30 35 1 13 32
M  V30 36 1 14 33
M  V30 37 1 15 34
M  V30 38 1 16 35
M  V30 39 1 16 36
M  V30 40 1 17 37
M  V30 41 1 17 38
M  V30 42 1 19 39
M  V30 43 1 20 40
M  V30 44 1 22 41
M  V30 45 1 23 42
M  V30 46 1 27 43
M  V30 47 1 27 44
M  V30 END BOND
M  V30 END CTAB
M  END
