
     RDKit          3D

  0  0  0  0  0  0  0  0  0  0999 V3000
M  V30 BEGIN CTAB
M  V30 COUNTS 53 55 0 0 0
M  V30 BEGIN ATOM
M  V30 1 O -2.89998 3.19242 -0.62883 0
M  V30 2 C -3.48562 2.15615 -1.12764 0
M  V30 3 N -4.72073 1.73517 -0.877819 0
M  V30 4 C -5.99846 1.29977 -0.619294 0
M  V30 5 C -7.02664 1.96644 -0.0422492 0
M  V30 6 C -8.28461 1.42071 0.18536 0
M  V30 7 C -8.51535 0.133649 -0.191845 0
M  V30 8 C -7.47362 -0.565442 -0.789314 0
M  V30 9 C -6.2662 -0.0489066 -1.00955 0
M  V30 10 S -10.0496 -0.628153 0.0745509 0
M  V30 11 O -11.0946 0.448491 0.075335 0
M  V30 12 O -10.3789 -1.6135 -1.03922 0
M  V30 13 N -10.1038 -1.43497 1.60287 0
M  V30 14 C -2.6249 1.37269 -2.10791 0
M  V30 15 S -2.08525 -0.204567 -1.46059 0
M  V30 16 C -0.846069 -0.00248797 -0.177059 0
M  V30 17 S -0.0790042 1.34981 0.488166 0
M  V30 18 N 0.921699 0.543766 1.60218 0
M  V30 19 C 0.614816 -0.725046 1.40503 0
M  V30 20 N -0.289311 -1.00767 0.494936 0
M  V30 21 S 1.39294 -2.06894 2.34648 0
M  V30 22 C 2.7876 -2.78498 1.5861 0
M  V30 23 C 4.06503 -1.99833 1.53115 0
M  V30 24 O 4.69406 -1.99298 2.62166 0
M  V30 25 N 4.53789 -1.33902 0.399989 0
M  V30 26 C 5.74176 -0.622935 0.20974 0
M  V30 27 C 6.25642 -0.42543 -1.07509 0
M  V30 28 C 7.46756 0.192317 -1.32222 0
M  V30 29 C 8.19044 0.625286 -0.230994 0
M  V30 30 C 7.74634 0.473286 1.05259 0
M  V30 31 C 6.50612 -0.157795 1.25105 0
M  V30 32 S 9.81038 1.27613 -0.514174 0
M  V30 33 O 9.86909 1.9779 -1.81171 0
M  V30 34 O 10.198 2.11187 0.642738 0
M  V30 35 N 10.8526 -0.146365 -0.551376 0
M  V30 36 H -4.79093 2.53608 0.223429 0
M  V30 37 H -6.89183 3.00674 0.284126 0
M  V30 38 H -9.03919 2.01636 0.651206 0
M  V30 39 H -7.69714 -1.58622 -1.07554 0
M  V30 40 H -5.43104 -0.562925 -1.4684 0
M  V30 41 H -10.0194 -2.47707 1.41975 0
M  V30 42 H -9.29707 -1.1148 2.18522 0
M  V30 43 H -1.76891 1.97462 -2.43807 0
M  V30 44 H -3.26267 1.17305 -3.00796 0
M  V30 45 H 2.54095 -3.137 0.527759 0
M  V30 46 H 3.04282 -3.77676 2.09407 0
M  V30 47 H 3.91219 -1.35796 -0.485433 0
M  V30 48 H 5.65204 -0.783529 -1.89733 0
M  V30 49 H 7.878 0.354345 -2.32126 0
M  V30 50 H 8.34432 0.830728 1.90892 0
M  V30 51 H 6.16003 -0.258417 2.25818 0
M  V30 52 H 10.2729 -0.930432 -0.991431 0
M  V30 53 H 10.9648 -0.415173 0.428445 0
M  V30 END ATOM
M  V30 BEGIN BOND
M  V30 1 2 1 2
M  V30 2 1 2 3
M  V30 3 1 3 4
M  V30 4 2 4 5
M  V30 5 1 5 6
M  V30 6 2 6 7
M  V30 7 1 7 8
M  V30 8 2 8 9
M  V30 9 1 7 10
M  V30 10 2 10 11
M  V30 11 2 10 12
M  V30 12 1 10 13
M  V30 13 1 2 14
M  V30 14 1 14 15
M  V30 15 1 15 16
M  V30 16 1 16 17
M  V30 17 1 17 18
M  V30 18 2 18 19
M  V30 19 1 19 20
M  V30 20 1 19 21
M  V30 21 1 21 22
M  V30 22 1 22 23
M  V30 23 2 23 24
M  V30 24 1 23 25
M  V30 25 1 25 26
M  V30 26 2 26 27
M  V30 27 1 27 28
M  V30 28 2 28 29
M  V30 29 1 29 30
M  V30 30 2 30 31
M  V30 31 1 29 32
M  V30 32 2 32 33
M  V30 33 2 32 34
M  V30 34 1 32 35
M  V30 35 1 9 4
M  V30 36 2 20 16
M  V30 37 1 31 26
M  V30 38 1 3 36
M  V30 39 1 5 37
M  V30 40 1 6 38
M  V30 41 1 8 39
M  V30 42 1 9 40
M  V30 43 1 13 41
M  V30 44 1 13 42
M  V30 45 1 14 43
M  V30 46 1 14 44
M  V30 47 1 22 45
M  V30 48 1 22 46
M  V30 49 1 25 47
M  V30 50 1 27 48
M  V30 51 1 28 49
M  V30 52 1 30 50
M  V30 53 1 31 51
M  V30 54 1 35 52
M  V30 55 1 35 53
M  V30 END BOND
M  V30 END CTAB
M  END
