
     RDKit          3D

  0  0  0  0  0  0  0  0  0  0999 V3000
M  V30 BEGIN CTAB
M  V30 COUNTS 41 42 0 0 0
M  V30 BEGIN ATOM
M  V30 1 N -5.78165 -2.40399 0.292581 0
M  V30 2 C -5.81479 -0.997918 0.15057 0
M  V30 3 C -6.94114 -0.331504 -0.33244 0
M  V30 4 C -6.90873 1.02742 -0.416404 0
M  V30 5 C -5.79615 1.74267 -0.0379133 0
M  V30 6 C -4.6833 1.05399 0.441662 0
M  V30 7 C -4.66038 -0.294934 0.544967 0
M  V30 8 S -3.25639 -1.22831 1.09681 0
M  V30 9 C -1.88144 -0.824198 -0.0196297 0
M  V30 10 C -0.780586 -0.0305158 0.678375 0
M  V30 11 O 0.150537 0.36993 -0.240735 0
M  V30 12 C 1.30291 0.876168 0.294942 0
M  V30 13 C 2.12182 1.47367 -0.828673 0
M  V30 14 S 3.73798 2.05315 -0.204553 0
M  V30 15 C 4.782 0.646539 0.131462 0
M  V30 16 C 5.64763 0.185918 -0.835971 0
M  V30 17 N 5.70806 0.871177 -2.06293 0
M  V30 18 C 6.45619 -0.929271 -0.600508 0
M  V30 19 C 6.37884 -1.55699 0.597231 0
M  V30 20 C 5.51266 -1.11478 1.59441 0
M  V30 21 C 4.71912 0.00379363 1.32807 0
M  V30 22 H -5.36263 -2.98733 -0.444512 0
M  V30 23 H -6.17597 -2.84155 1.14264 0
M  V30 24 H -7.82216 -0.865677 -0.633821 0
M  V30 25 H -7.80797 1.5316 -0.802773 0
M  V30 26 H -5.76295 2.84121 -0.109653 0
M  V30 27 H -3.80912 1.64403 0.743658 0
M  V30 28 H -1.50913 -1.72411 -0.509161 0
M  V30 29 H -2.27033 -0.17212 -0.856463 0
M  V30 30 H -1.16606 0.697595 1.3787 0
M  V30 31 H -0.24656 -0.826567 1.30392 0
M  V30 32 H 1.8869 0.11517 0.857152 0
M  V30 33 H 1.02241 1.68734 0.985392 0
M  V30 34 H 1.58438 2.31975 -1.29683 0
M  V30 35 H 2.34002 0.725778 -1.61223 0
M  V30 36 H 4.92274 1.50415 -2.3848 0
M  V30 37 H 6.55341 0.75389 -2.6595 0
M  V30 38 H 7.13635 -1.28869 -1.37981 0
M  V30 39 H 6.98569 -2.42393 0.792806 0
M  V30 40 H 5.42795 -1.59385 2.55542 0
M  V30 41 H 4.05987 0.311294 2.13123 0
M  V30 END ATOM
M  V30 BEGIN BOND
M  V30 1 1 1 2
M  V30 2 2 2 3
M  V30 3 1 3 4
M  V30 4 2 4 5
M  V30 5 1 5 6
M  V30 6 2 6 7
M  V30 7 1 7 8
M  V30 8 1 8 9
M  V30 9 1 9 10
M  V30 10 1 10 11
M  V30 11 1 11 12
M  V30 12 1 12 13
M  V30 13 1 13 14
M  V30 14 1 14 15
M  V30 15 2 15 16
M  V30 16 1 16 17
M  V30 17 1 16 18
M  V30 18 2 18 19
M  V30 19 1 19 20
M  V30 20 2 20 21
M  V30 21 1 7 2
M  V30 22 1 21 15
M  V30 23 1 1 22
M  V30 24 1 1 23
M  V30 25 1 3 24
M  V30 26 1 4 25
M  V30 27 1 5 26
M  V30 28 1 6 27
M  V30 29 1 9 28
M  V30 30 1 9 29
M  V30 31 1 10 30
M  V30 32 1 10 31
M  V30 33 1 12 32
M  V30 34 1 12 33
M  V30 35 1 13 34
M  V30 36 1 13 35
M  V30 37 1 17 36
M  V30 38 1 17 37
M  V30 39 1 18 38
M  V30 40 1 19 39
M  V30 41 1 20 40
M  V30 42 1 21 41
M  V30 END BOND
M  V30 END CTAB
M  END
