
     RDKit          3D

  0  0  0  0  0  0  0  0  0  0999 V3000
M  V30 BEGIN CTAB
M  V30 COUNTS 17 17 0 0 0
M  V30 BEGIN ATOM
M  V30 1 N 2.60391 -0.759253 0.240563 0
M  V30 2 C 1.28475 -0.268058 0.110646 0
M  V30 3 C 1.02242 1.08965 -0.0183146 0
M  V30 4 C -0.271101 1.54863 -0.143851 0
M  V30 5 C -1.31396 0.640447 -0.140448 0
M  V30 6 C -1.10288 -0.717316 -0.014968 0
M  V30 7 N -2.20119 -1.6224 -0.0155852 0
M  V30 8 C 0.199749 -1.15184 0.109188 0
M  V30 9 Cl 0.565146 -2.84832 0.272877 0
M  V30 10 C -0.523797 2.97505 -0.277769 0
M  V30 11 N -0.711574 4.11262 -0.380125 0
M  V30 12 H 3.34274 -0.228596 0.7295 0
M  V30 13 H 2.82795 -1.68287 -0.171333 0
M  V30 14 H 1.84748 1.79549 -0.0199745 0
M  V30 15 H -2.31254 1.04965 -0.241856 0
M  V30 16 H -3.11494 -1.35821 -0.445599 0
M  V30 17 H -2.14218 -2.57466 0.407051 0
M  V30 END ATOM
M  V30 BEGIN BOND
M  V30 1 1 1 2
M  V30 2 2 2 3
M  V30 3 1 3 4
M  V30 4 2 4 5
M  V30 5 1 5 6
M  V30 6 1 6 7
M  V30 7 2 6 8
M  V30 8 1 8 9
M  V30 9 1 4 10
M  V30 10 3 10 11
M  V30 11 1 8 2
M  V30 12 1 1 12
M  V30 13 1 1 13
M  V30 14 1 3 14
M  V30 15 1 5 15
M  V30 16 1 7 16
M  V30 17 1 7 17
M  V30 END BOND
M  V30 END CTAB
M  END
