
     RDKit          3D

  0  0  0  0  0  0  0  0  0  0999 V3000
M  V30 BEGIN CTAB
M  V30 COUNTS 17 17 0 0 0
M  V30 BEGIN ATOM
M  V30 1 N 2.39655 -1.03164 0.231796 0
M  V30 2 N 1.61813 0.0864791 -0.0369276 0
M  V30 3 C 0.20412 -0.0569189 0.00868534 0
M  V30 4 C -0.396674 -1.26324 0.309226 0
M  V30 5 C -1.76945 -1.30895 0.330549 0
M  V30 6 C -2.57165 -0.216823 0.0683651 0
M  V30 7 N -1.95152 0.939649 -0.22008 0
M  V30 8 C -0.633609 1.03143 -0.252307 0
M  V30 9 N 0.0570976 2.26317 -0.559749 0
M  V30 10 H 3.03216 -1.30512 -0.536338 0
M  V30 11 H 2.98836 -0.852751 1.08934 0
M  V30 12 H 2.06538 0.988347 -0.261604 0
M  V30 13 H 0.232893 -2.12327 0.515709 0
M  V30 14 H -2.23454 -2.26577 0.568846 0
M  V30 15 H -3.65292 -0.307703 0.0986283 0
M  V30 16 H 0.49106 2.83324 0.186772 0
M  V30 17 H 0.124616 2.58988 -1.54091 0
M  V30 END ATOM
M  V30 BEGIN BOND
M  V30 1 1 1 2
M  V30 2 1 2 3
M  V30 3 2 3 4
M  V30 4 1 4 5
M  V30 5 2 5 6
M  V30 6 1 6 7
M  V30 7 2 7 8
M  V30 8 1 8 9
M  V30 9 1 8 3
M  V30 10 1 1 10
M  V30 11 1 1 11
M  V30 12 1 2 12
M  V30 13 1 4 13
M  V30 14 1 5 14
M  V30 15 1 6 15
M  V30 16 1 9 16
M  V30 17 1 9 17
M  V30 END BOND
M  V30 END CTAB
M  END
