
     RDKit          3D

  0  0  0  0  0  0  0  0  0  0999 V3000
M  V30 BEGIN CTAB
M  V30 COUNTS 28 27 0 0 0
M  V30 BEGIN ATOM
M  V30 1 C -1.66379 0.83433 -0.264633 0 CFG=1
M  V30 2 O -1.40306 1.58019 -1.40839 0
M  V30 3 C -3.06444 0.368966 -0.275479 0
M  V30 4 N -3.47288 -0.40791 0.83551 0
M  V30 5 C -0.633457 -0.23842 -0.101414 0 CFG=1
M  V30 6 O -0.561059 -1.13362 -1.13364 0
M  V30 7 C 0.752858 0.331473 0.116057 0 CFG=2
M  V30 8 N 1.19682 1.00025 -1.11144 0
M  V30 9 C 1.68578 -0.874727 0.27412 0 CFG=2
M  V30 10 O 1.3885 -1.61111 1.39859 0
M  V30 11 C 3.10087 -0.338825 0.388096 0
M  V30 12 O 3.22285 0.484742 1.527 0
M  V30 13 H -1.5294 1.543 0.595658 0
M  V30 14 H -1.79925 2.49443 -1.2848 0
M  V30 15 H -3.25925 -0.248888 -1.20083 0
M  V30 16 H -3.75183 1.2357 -0.366269 0
M  V30 17 H -4.16153 -1.13369 0.679694 0
M  V30 18 H -2.89965 -0.421763 1.6564 0
M  V30 19 H -0.869623 -0.821139 0.83651 0
M  V30 20 H -0.882791 -2.0372 -0.87307 0
M  V30 21 H 0.826924 0.976557 0.990572 0
M  V30 22 H 1.79148 1.81541 -0.92702 0
M  V30 23 H 1.66892 0.346384 -1.75928 0
M  V30 24 H 1.62278 -1.48234 -0.629589 0
M  V30 25 H 1.56902 -2.58353 1.27282 0
M  V30 26 H 3.83157 -1.16454 0.447717 0
M  V30 27 H 3.33366 0.332815 -0.474974 0
M  V30 28 H 3.95995 1.15344 1.37706 0
M  V30 END ATOM
M  V30 BEGIN BOND
M  V30 1 1 1 2
M  V30 2 1 1 3
M  V30 3 1 3 4
M  V30 4 1 1 5
M  V30 5 1 5 6
M  V30 6 1 5 7
M  V30 7 1 7 8
M  V30 8 1 7 9
M  V30 9 1 9 10
M  V30 10 1 9 11
M  V30 11 1 11 12
M  V30 12 1 1 13 CFG=1
M  V30 13 1 2 14
M  V30 14 1 3 15
M  V30 15 1 3 16
M  V30 16 1 4 17
M  V30 17 1 4 18
M  V30 18 1 5 19 CFG=1
M  V30 19 1 6 20
M  V30 20 1 7 21 CFG=1
M  V30 21 1 8 22
M  V30 22 1 8 23
M  V30 23 1 9 24 CFG=3
M  V30 24 1 10 25
M  V30 25 1 11 26
M  V30 26 1 11 27
M  V30 27 1 12 28
M  V30 END BOND
M  V30 END CTAB
M  END
