
     RDKit          3D

  0  0  0  0  0  0  0  0  0  0999 V3000
M  V30 BEGIN CTAB
M  V30 COUNTS 19 19 0 0 0
M  V30 BEGIN ATOM
M  V30 1 N -2.77404 -1.48566 0.362781 0
M  V30 2 C -1.63765 -0.659467 0.168668 0
M  V30 3 C -1.75824 0.688706 -0.121851 0
M  V30 4 C -0.650742 1.4877 -0.30969 0
M  V30 5 Br -0.82502 3.35586 -0.712174 0
M  V30 6 C 0.632748 0.995919 -0.220186 0
M  V30 7 C 0.760794 -0.345458 0.0687608 0
M  V30 8 C -0.341505 -1.14989 0.257711 0
M  V30 9 C 2.1284 -0.917532 0.174513 0
M  V30 10 F 2.03898 -2.27341 0.469521 0
M  V30 11 F 2.79569 -0.784992 -1.04701 0
M  V30 12 F 2.87199 -0.283578 1.1222 0
M  V30 13 N 1.78578 1.82792 -0.41579 0
M  V30 14 H -3.36828 -1.71092 -0.45379 0
M  V30 15 H -3.03629 -1.87437 1.2868 0
M  V30 16 H -2.74509 1.09963 -0.197808 0
M  V30 17 H -0.257064 -2.21262 0.486871 0
M  V30 18 H 2.14516 2.02776 -1.36391 0
M  V30 19 H 2.23438 2.21439 0.44438 0
M  V30 END ATOM
M  V30 BEGIN BOND
M  V30 1 1 1 2
M  V30 2 2 2 3
M  V30 3 1 3 4
M  V30 4 1 4 5
M  V30 5 2 4 6
M  V30 6 1 6 7
M  V30 7 2 7 8
M  V30 8 1 7 9
M  V30 9 1 9 10
M  V30 10 1 9 11
M  V30 11 1 9 12
M  V30 12 1 6 13
M  V30 13 1 8 2
M  V30 14 1 1 14
M  V30 15 1 1 15
M  V30 16 1 3 16
M  V30 17 1 8 17
M  V30 18 1 13 18
M  V30 19 1 13 19
M  V30 END BOND
M  V30 END CTAB
M  END
