
     RDKit          3D

  0  0  0  0  0  0  0  0  0  0999 V3000
M  V30 BEGIN CTAB
M  V30 COUNTS 39 41 0 0 0
M  V30 BEGIN ATOM
M  V30 1 N -4.83823 -0.733078 1.26975 0
M  V30 2 C -4.17125 0.47662 0.793424 0
M  V30 3 C -4.3017 0.629501 -0.686536 0
M  V30 4 C -2.96938 0.516937 -1.40291 0
M  V30 5 C -2.14987 -0.633865 -0.81069 0
M  V30 6 C -1.81374 -0.345547 0.615992 0
M  V30 7 C -2.76676 0.584313 1.29903 0
M  V30 8 C -0.397442 0.213954 0.668807 0
M  V30 9 O -0.245845 1.35866 1.13933 0
M  V30 10 N 0.618605 -0.623305 0.175914 0
M  V30 11 C 2.0077 -0.353176 0.10827 0
M  V30 12 C 2.57921 0.821183 0.535631 0
M  V30 13 C 3.95577 1.07388 0.462043 0
M  V30 14 O 4.75893 2.14976 0.816642 0
M  V30 15 C 6.00248 1.98923 0.156204 0
M  V30 16 O 6.06082 0.587179 -0.0243343 0
M  V30 17 C 4.75512 0.0855386 -0.0666991 0
M  V30 18 C 4.18432 -1.08972 -0.494535 0
M  V30 19 C 2.84015 -1.35177 -0.429234 0
M  V30 20 N 2.31226 -2.58981 -0.889624 0
M  V30 21 H -5.25163 -1.28694 0.507496 0
M  V30 22 H -4.27203 -1.26579 1.94047 0
M  V30 23 H -4.74763 1.32564 1.2628 0
M  V30 24 H -4.76833 1.58469 -1.00345 0
M  V30 25 H -4.95942 -0.171759 -1.13504 0
M  V30 26 H -3.10733 0.280288 -2.46442 0
M  V30 27 H -2.38673 1.46163 -1.24194 0
M  V30 28 H -1.24402 -0.704813 -1.46404 0
M  V30 29 H -2.76525 -1.56074 -0.872973 0
M  V30 30 H -1.80941 -1.30104 1.17523 0
M  V30 31 H -2.78945 0.362162 2.3904 0
M  V30 32 H -2.4413 1.63643 1.18705 0
M  V30 33 H 0.314212 -1.59019 -0.19819 0
M  V30 34 H 1.99807 1.626 0.956958 0
M  V30 35 H 5.92575 2.46731 -0.825122 0
M  V30 36 H 6.84568 2.36767 0.76804 0
M  V30 37 H 4.82439 -1.86083 -0.909226 0
M  V30 38 H 2.22957 -2.86312 -1.87813 0
M  V30 39 H 1.98371 -3.27309 -0.168685 0
M  V30 END ATOM
M  V30 BEGIN BOND
M  V30 1 1 1 2
M  V30 2 1 2 3
M  V30 3 1 3 4
M  V30 4 1 4 5
M  V30 5 1 5 6
M  V30 6 1 6 7
M  V30 7 1 6 8
M  V30 8 2 8 9
M  V30 9 1 8 10
M  V30 10 1 10 11
M  V30 11 2 11 12
M  V30 12 1 12 13
M  V30 13 1 13 14
M  V30 14 1 14 15
M  V30 15 1 15 16
M  V30 16 1 16 17
M  V30 17 1 17 18
M  V30 18 2 18 19
M  V30 19 1 19 20
M  V30 20 1 7 2
M  V30 21 1 19 11
M  V30 22 2 17 13
M  V30 23 1 1 21
M  V30 24 1 1 22
M  V30 25 1 2 23
M  V30 26 1 3 24
M  V30 27 1 3 25
M  V30 28 1 4 26
M  V30 29 1 4 27
M  V30 30 1 5 28
M  V30 31 1 5 29
M  V30 32 1 6 30
M  V30 33 1 7 31
M  V30 34 1 7 32
M  V30 35 1 10 33
M  V30 36 1 12 34
M  V30 37 1 15 35
M  V30 38 1 15 36
M  V30 39 1 18 37
M  V30 40 1 20 38
M  V30 41 1 20 39
M  V30 END BOND
M  V30 END CTAB
M  END
