
     RDKit          3D

  0  0  0  0  0  0  0  0  0  0999 V3000
M  V30 BEGIN CTAB
M  V30 COUNTS 20 21 0 0 0
M  V30 BEGIN ATOM
M  V30 1 N 1.15251 1.98405 -0.763256 0
M  V30 2 C 1.73629 0.707364 -0.436261 0
M  V30 3 N 3.06097 0.508931 -0.537382 0
M  V30 4 C 3.58212 -0.690486 -0.226779 0
M  V30 5 C 2.74261 -1.6987 0.191632 0
M  V30 6 N 1.42113 -1.5103 0.295487 0
M  V30 7 C 0.877523 -0.297355 -0.0165742 0
M  V30 8 C -0.535 -0.0429769 0.0778787 0
M  V30 9 N -1.15263 1.10093 -0.203496 0
M  V30 10 N -2.47003 0.948395 0.00638722 0
M  V30 11 C -2.68701 -0.308344 0.425792 0
M  V30 12 N -1.48141 -0.912689 0.466172 0
M  V30 13 N -3.96832 -0.843152 0.750689 0
M  V30 14 H 0.706103 2.1164 -1.6991 0
M  V30 15 H 1.17422 2.76873 -0.0748434 0
M  V30 16 H 4.65981 -0.847714 -0.310359 0
M  V30 17 H 3.22331 -2.65135 0.430112 0
M  V30 18 H -3.12467 1.7372 -0.159474 0
M  V30 19 H -4.44231 -1.58584 0.194037 0
M  V30 20 H -4.47522 -0.48309 1.58934 0
M  V30 END ATOM
M  V30 BEGIN BOND
M  V30 1 1 1 2
M  V30 2 2 2 3
M  V30 3 1 3 4
M  V30 4 2 4 5
M  V30 5 1 5 6
M  V30 6 2 6 7
M  V30 7 1 7 8
M  V30 8 2 8 9
M  V30 9 1 9 10
M  V30 10 1 10 11
M  V30 11 2 11 12
M  V30 12 1 11 13
M  V30 13 1 7 2
M  V30 14 1 12 8
M  V30 15 1 1 14
M  V30 16 1 1 15
M  V30 17 1 4 16
M  V30 18 1 5 17
M  V30 19 1 10 18
M  V30 20 1 13 19
M  V30 21 1 13 20
M  V30 END BOND
M  V30 END CTAB
M  END
