
     RDKit          3D

  0  0  0  0  0  0  0  0  0  0999 V3000
M  V30 BEGIN CTAB
M  V30 COUNTS 57 61 0 0 0
M  V30 BEGIN ATOM
M  V30 1 C -5.6268 3.25096 -0.978751 0
M  V30 2 C -5.50628 1.77339 -0.875667 0
M  V30 3 C -6.51799 0.916277 -1.22516 0
M  V30 4 C -6.33841 -0.44317 -1.10453 0
M  V30 5 C -5.14006 -0.994333 -0.629669 0
M  V30 6 C -4.12909 -0.151423 -0.280059 0
M  V30 7 C -4.31429 1.21323 -0.40296 0
M  V30 8 C -3.03153 -0.950584 0.164237 0
M  V30 9 C -1.85205 -0.253333 0.620751 0
M  V30 10 N -0.644195 -0.85741 0.935088 0
M  V30 11 C 0.157752 -1.11608 -0.276116 0
M  V30 12 C 1.41755 -1.82883 0.0600337 0
M  V30 13 C 2.44095 -1.02361 0.771681 0
M  V30 14 C 2.27343 0.456607 0.637803 0
M  V30 15 C 0.979242 1.00451 1.08983 0
M  V30 16 C 0.127747 -0.0258563 1.83267 0
M  V30 17 O 2.67266 0.847284 -0.672596 0
M  V30 18 C 4.04956 0.818623 -0.737494 0
M  V30 19 C 4.55049 0.966226 0.539133 0
M  V30 20 C 3.39611 1.09371 1.47739 0
M  V30 21 C 5.90555 0.972402 0.758599 0
M  V30 22 N 6.38588 1.1245 2.08689 0
M  V30 23 N 6.7352 0.830008 -0.308222 0
M  V30 24 C 6.27655 0.684632 -1.56077 0
M  V30 25 N 4.9486 0.68141 -1.75299 0
M  V30 26 N 7.16226 0.533268 -2.67638 0
M  V30 27 C -3.46597 -2.24112 0.0560075 0
M  V30 28 N -4.75906 -2.25312 -0.435015 0
M  V30 29 C -2.79602 -3.46538 0.428094 0
M  V30 30 O -3.45827 -4.56269 0.200981 0
M  V30 31 O -1.56874 -3.63249 0.990679 0
M  V30 32 H -6.56829 3.45999 -1.52117 0
M  V30 33 H -4.78069 3.6209 -1.60526 0
M  V30 34 H -5.61072 3.73736 0.0173294 0
M  V30 35 H -7.44166 1.35055 -1.59271 0
M  V30 36 H -7.12537 -1.10124 -1.37659 0
M  V30 37 H -3.53979 1.89997 -0.136476 0
M  V30 38 H -1.65106 0.607242 -0.129415 0
M  V30 39 H -2.1762 0.355314 1.55009 0
M  V30 40 H 0.331872 -0.199313 -0.858332 0
M  V30 41 H -0.45876 -1.77281 -0.921802 0
M  V30 42 H 1.17642 -2.72144 0.686742 0
M  V30 43 H 1.83426 -2.27088 -0.891608 0
M  V30 44 H 3.44971 -1.27049 0.325557 0
M  V30 45 H 2.53387 -1.30893 1.83489 0
M  V30 46 H 1.12041 1.83693 1.84385 0
M  V30 47 H 0.346703 1.46749 0.304601 0
M  V30 48 H 0.749305 -0.616253 2.53405 0
M  V30 49 H -0.596638 0.522319 2.47617 0
M  V30 50 H 3.54326 0.532896 2.41805 0
M  V30 51 H 3.1891 2.14898 1.69581 0
M  V30 52 H 6.65736 0.336919 2.7119 0
M  V30 53 H 6.47184 2.09294 2.45809 0
M  V30 54 H 7.45799 -0.449099 -2.94529 0
M  V30 55 H 7.53521 1.30295 -3.23914 0
M  V30 56 H -5.3719 -3.06022 -0.636249 0
M  V30 57 H -1.40697 -3.86966 1.94401 0
M  V30 END ATOM
M  V30 BEGIN BOND
M  V30 1 1 1 2
M  V30 2 2 2 3
M  V30 3 1 3 4
M  V30 4 2 4 5
M  V30 5 1 5 6
M  V30 6 2 6 7
M  V30 7 1 6 8
M  V30 8 1 8 9
M  V30 9 1 9 10
M  V30 10 1 10 11
M  V30 11 1 11 12
M  V30 12 1 12 13
M  V30 13 1 13 14
M  V30 14 1 14 15
M  V30 15 1 15 16
M  V30 16 1 14 17
M  V30 17 1 17 18
M  V30 18 2 18 19
M  V30 19 1 19 20
M  V30 20 1 19 21
M  V30 21 1 21 22
M  V30 22 2 21 23
M  V30 23 1 23 24
M  V30 24 2 24 25
M  V30 25 1 24 26
M  V30 26 2 8 27
M  V30 27 1 27 28
M  V30 28 1 27 29
M  V30 29 2 29 30
M  V30 30 1 29 31
M  V30 31 1 7 2
M  V30 32 1 16 10
M  V30 33 1 25 18
M  V30 34 1 28 5
M  V30 35 1 20 14
M  V30 36 1 1 32
M  V30 37 1 1 33
M  V30 38 1 1 34
M  V30 39 1 3 35
M  V30 40 1 4 36
M  V30 41 1 7 37
M  V30 42 1 9 38
M  V30 43 1 9 39
M  V30 44 1 11 40
M  V30 45 1 11 41
M  V30 46 1 12 42
M  V30 47 1 12 43
M  V30 48 1 13 44
M  V30 49 1 13 45
M  V30 50 1 15 46
M  V30 51 1 15 47
M  V30 52 1 16 48
M  V30 53 1 16 49
M  V30 54 1 20 50
M  V30 55 1 20 51
M  V30 56 1 22 52
M  V30 57 1 22 53
M  V30 58 1 26 54
M  V30 59 1 26 55
M  V30 60 1 28 56
M  V30 61 1 31 57
M  V30 END BOND
M  V30 END CTAB
M  END
