
     RDKit          3D

  0  0  0  0  0  0  0  0  0  0999 V3000
M  V30 BEGIN CTAB
M  V30 COUNTS 14 14 0 0 0
M  V30 BEGIN ATOM
M  V30 1 N 2.69411 -0.52037 0.573993 0
M  V30 2 C 1.40002 -0.00475583 0.283514 0
M  V30 3 N 0.381125 -0.864408 0.12084 0
M  V30 4 C -0.872202 -0.48521 -0.154225 0
M  V30 5 N -1.9421 -1.39786 -0.324516 0
M  V30 6 C -1.14803 0.858689 -0.280533 0
M  V30 7 Br -2.92004 1.48705 -0.67422 0
M  V30 8 C -0.0961104 1.73728 -0.112121 0
M  V30 9 N 1.15214 1.31097 0.164371 0
M  V30 10 H 3.56051 -0.0719377 0.244655 0
M  V30 11 H 2.79783 -1.39167 1.14508 0
M  V30 12 H -1.88853 -2.12205 -1.06424 0
M  V30 13 H -2.78059 -1.33895 0.294434 0
M  V30 14 H -0.338126 2.80322 -0.217031 0
M  V30 END ATOM
M  V30 BEGIN BOND
M  V30 1 1 1 2
M  V30 2 2 2 3
M  V30 3 1 3 4
M  V30 4 1 4 5
M  V30 5 2 4 6
M  V30 6 1 6 7
M  V30 7 1 6 8
M  V30 8 2 8 9
M  V30 9 1 9 2
M  V30 10 1 1 10
M  V30 11 1 1 11
M  V30 12 1 5 12
M  V30 13 1 5 13
M  V30 14 1 8 14
M  V30 END BOND
M  V30 END CTAB
M  END
