
     RDKit          3D

  0  0  0  0  0  0  0  0  0  0999 V3000
M  V30 BEGIN CTAB
M  V30 COUNTS 52 55 0 0 0
M  V30 BEGIN ATOM
M  V30 1 N -11.1385 2.20328 -0.231803 0
M  V30 2 C -9.77764 1.74394 -0.205486 0
M  V30 3 C -9.00226 1.73012 -1.34475 0
M  V30 4 C -7.6892 1.27995 -1.28759 0
M  V30 5 C -7.11504 0.836662 -0.11546 0
M  V30 6 C -7.91552 0.859565 1.02068 0
M  V30 7 C -9.21655 1.30273 0.977372 0
M  V30 8 N -5.7723 0.375157 -0.0535254 0
M  V30 9 N -4.7982 0.97767 -0.598022 0
M  V30 10 C -3.51025 0.378905 -0.440475 0
M  V30 11 C -3.26479 -0.575158 0.533584 0
M  V30 12 C -1.99745 -1.10866 0.626529 0
M  V30 13 C -0.965175 -0.720555 -0.222243 0
M  V30 14 C -1.24565 0.230341 -1.17872 0
M  V30 15 C -2.50503 0.783734 -1.29714 0
M  V30 16 N 0.316378 -1.30363 -0.0790269 0
M  V30 17 N 1.38081 -0.63214 -0.230816 0
M  V30 18 C 2.60385 -1.32353 -0.0625242 0
M  V30 19 C 3.53236 -1.43526 -1.0753 0
M  V30 20 C 4.71709 -2.13511 -0.83054 0
M  V30 21 C 4.96456 -2.70819 0.397813 0
M  V30 22 C 4.02355 -2.58836 1.40601 0
M  V30 23 C 2.84631 -1.90147 1.18653 0
M  V30 24 N 6.17257 -3.41744 0.635144 0
M  V30 25 N 7.301 -2.86364 0.801404 0
M  V30 26 C 7.40419 -1.44649 0.754358 0
M  V30 27 C 7.98782 -0.85624 -0.350334 0
M  V30 28 C 8.11936 0.513181 -0.458661 0
M  V30 29 C 7.67104 1.35986 0.538221 0
M  V30 30 N 7.80804 2.76989 0.424093 0
M  V30 31 C 7.08739 0.760605 1.642 0
M  V30 32 C 6.95203 -0.615475 1.75703 0
M  V30 33 H -11.4974 2.92897 0.425131 0
M  V30 34 H -11.8115 1.81091 -0.925146 0
M  V30 35 H -9.43071 2.0706 -2.26371 0
M  V30 36 H -7.05963 1.26313 -2.18579 0
M  V30 37 H -7.49766 0.52011 1.95215 0
M  V30 38 H -9.85106 1.3233 1.86655 0
M  V30 39 H -4.06449 -0.893426 1.21118 0
M  V30 40 H -1.75361 -1.8615 1.375 0
M  V30 41 H -0.418461 0.524352 -1.83988 0
M  V30 42 H -2.70542 1.53705 -2.06358 0
M  V30 43 H 3.35227 -0.98891 -2.05032 0
M  V30 44 H 5.45422 -2.23041 -1.61682 0
M  V30 45 H 4.22848 -3.04251 2.36694 0
M  V30 46 H 2.14599 -1.83296 1.99504 0
M  V30 47 H 8.34816 -1.51884 -1.14898 0
M  V30 48 H 8.5806 0.947104 -1.33541 0
M  V30 49 H 7.0297 3.43371 0.225706 0
M  V30 50 H 8.75717 3.18269 0.546765 0
M  V30 51 H 6.72989 1.41484 2.43522 0
M  V30 52 H 6.48868 -1.06241 2.63701 0
M  V30 END ATOM
M  V30 BEGIN BOND
M  V30 1 1 1 2
M  V30 2 2 2 3
M  V30 3 1 3 4
M  V30 4 2 4 5
M  V30 5 1 5 6
M  V30 6 2 6 7
M  V30 7 1 5 8
M  V30 8 2 8 9 CFG=2
M  V30 9 1 9 10
M  V30 10 2 10 11
M  V30 11 1 11 12
M  V30 12 2 12 13
M  V30 13 1 13 14
M  V30 14 2 14 15
M  V30 15 1 13 16
M  V30 16 2 16 17 CFG=2
M  V30 17 1 17 18
M  V30 18 2 18 19
M  V30 19 1 19 20
M  V30 20 2 20 21
M  V30 21 1 21 22
M  V30 22 2 22 23
M  V30 23 1 21 24
M  V30 24 2 24 25 CFG=2
M  V30 25 1 25 26
M  V30 26 2 26 27
M  V30 27 1 27 28
M  V30 28 2 28 29
M  V30 29 1 29 30
M  V30 30 1 29 31
M  V30 31 2 31 32
M  V30 32 1 7 2
M  V30 33 1 15 10
M  V30 34 1 23 18
M  V30 35 1 32 26
M  V30 36 1 1 33
M  V30 37 1 1 34
M  V30 38 1 3 35
M  V30 39 1 4 36
M  V30 40 1 6 37
M  V30 41 1 7 38
M  V30 42 1 11 39
M  V30 43 1 12 40
M  V30 44 1 14 41
M  V30 45 1 15 42
M  V30 46 1 19 43
M  V30 47 1 20 44
M  V30 48 1 22 45
M  V30 49 1 23 46
M  V30 50 1 27 47
M  V30 51 1 28 48
M  V30 52 1 30 49
M  V30 53 1 30 50
M  V30 54 1 31 51
M  V30 55 1 32 52
M  V30 END BOND
M  V30 END CTAB
M  END
