
     RDKit          3D

  0  0  0  0  0  0  0  0  0  0999 V3000
M  V30 BEGIN CTAB
M  V30 COUNTS 31 32 0 0 0
M  V30 BEGIN ATOM
M  V30 1 N -1.70077 2.0545 -0.165653 0
M  V30 2 C -2.41611 0.838244 -0.148734 0
M  V30 3 N -3.61031 0.717911 0.447268 0
M  V30 4 C -4.28062 -0.445992 0.454447 0
M  V30 5 C -3.73818 -1.56292 -0.166266 0
M  V30 6 C -2.50186 -1.45641 -0.788805 0
M  V30 7 C -1.83845 -0.260222 -0.78238 0
M  V30 8 C -0.518405 -0.10723 -1.43088 0
M  V30 9 C 0.599958 -0.0782669 -0.477704 0
M  V30 10 C 1.45656 0.93433 -0.327047 0
M  V30 11 C 2.569 0.87468 0.672109 0
M  V30 12 C 3.14596 -0.509318 0.783179 0
M  V30 13 N 2.26639 -1.54241 0.306786 0
M  V30 14 C 0.862534 -1.24071 0.430017 0
M  V30 15 N 3.61501 1.75367 0.176383 0
M  V30 16 H -1.4216 2.56163 -1.03089 0
M  V30 17 H -1.42266 2.49353 0.743218 0
M  V30 18 H -5.24842 -0.550922 0.935476 0
M  V30 19 H -4.28108 -2.49318 -0.156514 0
M  V30 20 H -2.11303 -2.33846 -1.2589 0
M  V30 21 H -0.371438 -1.01159 -2.09228 0
M  V30 22 H -0.549753 0.747484 -2.11442 0
M  V30 23 H 1.32827 1.8006 -0.943002 0
M  V30 24 H 2.23982 1.27383 1.65025 0
M  V30 25 H 3.4032 -0.725155 1.83959 0
M  V30 26 H 4.09735 -0.606373 0.207517 0
M  V30 27 H 2.44896 -2.42985 0.81306 0
M  V30 28 H 0.293895 -2.13371 0.169522 0
M  V30 29 H 0.658403 -0.948675 1.49529 0
M  V30 30 H 3.41498 2.7459 0.478713 0
M  V30 31 H 3.61239 1.64508 -0.864418 0
M  V30 END ATOM
M  V30 BEGIN BOND
M  V30 1 1 1 2
M  V30 2 2 2 3
M  V30 3 1 3 4
M  V30 4 2 4 5
M  V30 5 1 5 6
M  V30 6 2 6 7
M  V30 7 1 7 8
M  V30 8 1 8 9
M  V30 9 2 9 10
M  V30 10 1 10 11
M  V30 11 1 11 12
M  V30 12 1 12 13
M  V30 13 1 13 14
M  V30 14 1 11 15
M  V30 15 1 7 2
M  V30 16 1 14 9
M  V30 17 1 1 16
M  V30 18 1 1 17
M  V30 19 1 4 18
M  V30 20 1 5 19
M  V30 21 1 6 20
M  V30 22 1 8 21
M  V30 23 1 8 22
M  V30 24 1 10 23
M  V30 25 1 11 24
M  V30 26 1 12 25
M  V30 27 1 12 26
M  V30 28 1 13 27
M  V30 29 1 14 28
M  V30 30 1 14 29
M  V30 31 1 15 30
M  V30 32 1 15 31
M  V30 END BOND
M  V30 END CTAB
M  END
