
     RDKit          3D

  0  0  0  0  0  0  0  0  0  0999 V3000
M  V30 BEGIN CTAB
M  V30 COUNTS 21 22 0 0 0
M  V30 BEGIN ATOM
M  V30 1 N -3.21965 0.538582 -0.675311 0
M  V30 2 C -1.82016 0.369633 -0.465936 0
M  V30 3 C -0.899743 0.633076 -1.46372 0
M  V30 4 C 0.45811 0.473639 -1.27414 0
M  V30 5 C 0.958516 0.0387502 -0.0639976 0
M  V30 6 C 0.0410394 -0.223696 0.930127 0
M  V30 7 C -1.31807 -0.0661458 0.746545 0
M  V30 8 N -2.2292 -0.345708 1.79115 0
M  V30 9 N 2.35291 -0.138897 0.17288 0
M  V30 10 C 3.21163 -0.83433 -0.593882 0
M  V30 11 N 4.4583 -0.778777 -0.0482118 0
M  V30 12 N 4.33897 -0.0404772 1.05763 0
M  V30 13 N 3.08121 0.333331 1.17654 0
M  V30 14 H -3.63897 0.218491 -1.57461 0
M  V30 15 H -3.8704 0.967148 0.0171773 0
M  V30 16 H -1.29553 0.974538 -2.41324 0
M  V30 17 H 1.17684 0.681448 -2.05963 0
M  V30 18 H 0.445097 -0.5684 1.88772 0
M  V30 19 H -3.05506 -0.935829 1.61314 0
M  V30 20 H -2.06797 0.0419933 2.73625 0
M  V30 21 H 2.89213 -1.33837 -1.4965 0
M  V30 END ATOM
M  V30 BEGIN BOND
M  V30 1 1 1 2
M  V30 2 2 2 3
M  V30 3 1 3 4
M  V30 4 2 4 5
M  V30 5 1 5 6
M  V30 6 2 6 7
M  V30 7 1 7 8
M  V30 8 1 5 9
M  V30 9 1 9 10
M  V30 10 2 10 11
M  V30 11 1 11 12
M  V30 12 2 12 13
M  V30 13 1 7 2
M  V30 14 1 13 9
M  V30 15 1 1 14
M  V30 16 1 1 15
M  V30 17 1 3 16
M  V30 18 1 4 17
M  V30 19 1 6 18
M  V30 20 1 8 19
M  V30 21 1 8 20
M  V30 22 1 10 21
M  V30 END BOND
M  V30 END CTAB
M  END
