
     RDKit          3D

  0  0  0  0  0  0  0  0  0  0999 V3000
M  V30 BEGIN CTAB
M  V30 COUNTS 33 34 0 0 0
M  V30 BEGIN ATOM
M  V30 1 C -1.16103 -1.84406 -0.660605 0
M  V30 2 C -1.15031 -1.03429 0.612825 0 CFG=2
M  V30 3 F -0.616877 -1.80757 1.62141 0
M  V30 4 C -2.61643 -0.833186 0.999161 0
M  V30 5 O -3.10585 0.402837 0.526442 0
M  V30 6 C -2.55236 0.96924 -0.600261 0
M  V30 7 N -3.27541 1.56779 -1.65647 0
M  V30 8 N -1.24755 0.937318 -0.673518 0
M  V30 9 C -0.527292 0.304026 0.448901 0 CFG=1
M  V30 10 C -0.752135 1.12388 1.6978 0
M  V30 11 C 0.891445 0.350125 0.109643 0
M  V30 12 C 1.73825 -0.72758 -0.0257299 0
M  V30 13 C 3.0911 -0.591771 -0.349401 0
M  V30 14 N 3.90071 -1.73791 -0.472297 0
M  V30 15 C 3.6341 0.657419 -0.548218 0
M  V30 16 C 2.80931 1.74656 -0.418478 0
M  V30 17 C 1.49115 1.59772 -0.102236 0
M  V30 18 F 0.708623 2.70098 0.0167438 0
M  V30 19 H -0.460516 -1.42575 -1.42122 0
M  V30 20 H -2.18561 -1.96426 -1.09043 0
M  V30 21 H -0.81198 -2.86724 -0.436078 0
M  V30 22 H -3.25644 -1.65028 0.607371 0
M  V30 23 H -2.75192 -0.828432 2.10084 0
M  V30 24 H -3.68802 2.50825 -1.54842 0
M  V30 25 H -3.38702 1.05046 -2.54318 0
M  V30 26 H -1.41198 2.00534 1.48052 0
M  V30 27 H -1.2195 0.497754 2.48135 0
M  V30 28 H 0.214145 1.47714 2.12833 0
M  V30 29 H 1.34874 -1.7125 0.125664 0
M  V30 30 H 4.87017 -1.68846 -0.796585 0
M  V30 31 H 3.51942 -2.67856 -0.229974 0
M  V30 32 H 4.68107 0.774956 -0.799425 0
M  V30 33 H 3.27997 2.72007 -0.584464 0
M  V30 END ATOM
M  V30 BEGIN BOND
M  V30 1 1 1 2
M  V30 2 1 2 3 CFG=1
M  V30 3 1 2 4
M  V30 4 1 4 5
M  V30 5 1 5 6
M  V30 6 1 6 7
M  V30 7 2 6 8
M  V30 8 1 8 9
M  V30 9 1 9 10 CFG=1
M  V30 10 1 9 11
M  V30 11 2 11 12
M  V30 12 1 12 13
M  V30 13 1 13 14
M  V30 14 2 13 15
M  V30 15 1 15 16
M  V30 16 2 16 17
M  V30 17 1 17 18
M  V30 18 1 9 2
M  V30 19 1 17 11
M  V30 20 1 1 19
M  V30 21 1 1 20
M  V30 22 1 1 21
M  V30 23 1 4 22
M  V30 24 1 4 23
M  V30 25 1 7 24
M  V30 26 1 7 25
M  V30 27 1 10 26
M  V30 28 1 10 27
M  V30 29 1 10 28
M  V30 30 1 12 29
M  V30 31 1 14 30
M  V30 32 1 14 31
M  V30 33 1 15 32
M  V30 34 1 16 33
M  V30 END BOND
M  V30 END CTAB
M  END
