
     RDKit          3D

  0  0  0  0  0  0  0  0  0  0999 V3000
M  V30 BEGIN CTAB
M  V30 COUNTS 45 45 0 0 0
M  V30 BEGIN ATOM
M  V30 1 C 5.59434 -0.615701 -2.41011 0
M  V30 2 O 5.05407 -0.910969 -1.14633 0
M  V30 3 C 5.24985 0.185832 -0.336525 0
M  V30 4 C 4.66528 -0.137087 1.02639 0
M  V30 5 C 3.19798 -0.419076 0.871154 0
M  V30 6 O 2.81019 -1.33225 0.119658 0
M  V30 7 N 2.28107 0.365332 1.58794 0
M  V30 8 C 0.858603 0.188741 1.51148 0
M  V30 9 C 0.354649 0.420392 0.132863 0
M  V30 10 C -1.13328 0.244215 0.0361118 0
M  V30 11 C -1.68877 -0.883282 -0.533052 0
M  V30 12 C -3.05528 -1.04489 -0.621759 0
M  V30 13 C -3.92682 -0.0819536 -0.143128 0
M  V30 14 C -3.3789 1.04097 0.423692 0
M  V30 15 C -2.01112 1.19599 0.5091 0
M  V30 16 C -5.40001 -0.23491 -0.22806 0
M  V30 17 C -5.89811 -1.45794 0.461679 0
M  V30 18 C -5.86443 -0.288235 -1.6801 0
M  V30 19 N 0.647089 1.79247 -0.285292 0
M  V30 20 N 4.82592 0.96517 1.95095 0
M  V30 21 H 5.03902 0.283675 -2.78519 0
M  V30 22 H 6.644 -0.316802 -2.23067 0
M  V30 23 H 5.50473 -1.47455 -3.10255 0
M  V30 24 H 6.28051 0.534758 -0.273255 0
M  V30 25 H 4.65141 1.02246 -0.77034 0
M  V30 26 H 5.17581 -1.01322 1.47795 0
M  V30 27 H 2.61542 1.14612 2.23589 0
M  V30 28 H 0.574654 -0.872548 1.77815 0
M  V30 29 H 0.323201 0.803895 2.27916 0
M  V30 30 H 0.818588 -0.23659 -0.586736 0
M  V30 31 H -1.03288 -1.66642 -0.922602 0
M  V30 32 H -3.48983 -1.92301 -1.06505 0
M  V30 33 H -3.99125 1.83612 0.819516 0
M  V30 34 H -1.55898 2.09041 0.960665 0
M  V30 35 H -5.88296 0.657147 0.217341 0
M  V30 36 H -6.0142 -2.26574 -0.286266 0
M  V30 37 H -6.87089 -1.24045 0.98712 0
M  V30 38 H -5.21543 -1.80014 1.28519 0
M  V30 39 H -5.70752 -1.31759 -2.10398 0
M  V30 40 H -6.91779 0.00640367 -1.77936 0
M  V30 41 H -5.21904 0.398733 -2.29867 0
M  V30 42 H -0.0963003 2.09254 -0.959441 0
M  V30 43 H 0.703631 2.41301 0.535904 0
M  V30 44 H 4.66121 0.58433 2.91106 0
M  V30 45 H 5.82256 1.26467 1.90959 0
M  V30 END ATOM
M  V30 BEGIN BOND
M  V30 1 1 1 2
M  V30 2 1 2 3
M  V30 3 1 3 4
M  V30 4 1 4 5
M  V30 5 2 5 6
M  V30 6 1 5 7
M  V30 7 1 7 8
M  V30 8 1 8 9
M  V30 9 1 9 10
M  V30 10 2 10 11
M  V30 11 1 11 12
M  V30 12 2 12 13
M  V30 13 1 13 14
M  V30 14 2 14 15
M  V30 15 1 13 16
M  V30 16 1 16 17
M  V30 17 1 16 18
M  V30 18 1 9 19
M  V30 19 1 4 20
M  V30 20 1 15 10
M  V30 21 1 1 21
M  V30 22 1 1 22
M  V30 23 1 1 23
M  V30 24 1 3 24
M  V30 25 1 3 25
M  V30 26 1 4 26
M  V30 27 1 7 27
M  V30 28 1 8 28
M  V30 29 1 8 29
M  V30 30 1 9 30
M  V30 31 1 11 31
M  V30 32 1 12 32
M  V30 33 1 14 33
M  V30 34 1 15 34
M  V30 35 1 16 35
M  V30 36 1 17 36
M  V30 37 1 17 37
M  V30 38 1 17 38
M  V30 39 1 18 39
M  V30 40 1 18 40
M  V30 41 1 18 41
M  V30 42 1 19 42
M  V30 43 1 19 43
M  V30 44 1 20 44
M  V30 45 1 20 45
M  V30 END BOND
M  V30 END CTAB
M  END
