
     RDKit          3D

  0  0  0  0  0  0  0  0  0  0999 V3000
M  V30 BEGIN CTAB
M  V30 COUNTS 27 29 0 0 0
M  V30 BEGIN ATOM
M  V30 1 N -4.77928 -0.122004 -0.350935 0
M  V30 2 C -3.40242 0.00971753 -0.00791567 0
M  V30 3 C -2.46725 -0.484137 -0.868459 0
M  V30 4 C -1.12311 -0.371232 -0.562995 0
M  V30 5 C -0.778725 0.244224 0.61481 0
M  V30 6 C -1.74111 0.750429 1.49661 0
M  V30 7 C -3.07973 0.63247 1.18205 0
M  V30 8 C 0.676695 0.244315 0.716568 0
M  V30 9 C 1.19486 -0.366615 -0.392545 0
M  V30 10 C 0.103795 -0.798352 -1.27807 0
M  V30 11 C 2.58025 -0.479724 -0.507877 0
M  V30 12 C 3.44424 0.000670605 0.453011 0
M  V30 13 N 4.84034 -0.147513 0.272667 0
M  V30 14 C 2.93351 0.618298 1.5752 0
M  V30 15 C 1.56404 0.725401 1.68038 0
M  V30 16 H -5.09384 -0.718746 -1.14801 0
M  V30 17 H -5.52542 0.381717 0.192612 0
M  V30 18 H -2.7193 -0.971497 -1.79968 0
M  V30 19 H -1.43547 1.23622 2.42863 0
M  V30 20 H -3.87079 1.00297 1.82143 0
M  V30 21 H 0.0967474 -1.90383 -1.43836 0
M  V30 22 H 0.166892 -0.272168 -2.27332 0
M  V30 23 H 2.94652 -0.967788 -1.39726 0
M  V30 24 H 5.18473 -1.06518 -0.077386 0
M  V30 25 H 5.54091 0.603191 0.468301 0
M  V30 26 H 3.59737 1.00721 2.35061 0
M  V30 27 H 1.14554 1.21195 2.56328 0
M  V30 END ATOM
M  V30 BEGIN BOND
M  V30 1 1 1 2
M  V30 2 2 2 3
M  V30 3 1 3 4
M  V30 4 2 4 5
M  V30 5 1 5 6
M  V30 6 2 6 7
M  V30 7 1 5 8
M  V30 8 2 8 9
M  V30 9 1 9 10
M  V30 10 1 9 11
M  V30 11 2 11 12
M  V30 12 1 12 13
M  V30 13 1 12 14
M  V30 14 2 14 15
M  V30 15 1 7 2
M  V30 16 1 15 8
M  V30 17 1 10 4
M  V30 18 1 1 16
M  V30 19 1 1 17
M  V30 20 1 3 18
M  V30 21 1 6 19
M  V30 22 1 7 20
M  V30 23 1 10 21
M  V30 24 1 10 22
M  V30 25 1 11 23
M  V30 26 1 13 24
M  V30 27 1 13 25
M  V30 28 1 14 26
M  V30 29 1 15 27
M  V30 END BOND
M  V30 END CTAB
M  END
