
     RDKit          3D

  0  0  0  0  0  0  0  0  0  0999 V3000
M  V30 BEGIN CTAB
M  V30 COUNTS 36 36 0 0 0
M  V30 BEGIN ATOM
M  V30 1 C 1.64527 1.9759 0.594609 0
M  V30 2 C 0.501153 1.03879 0.470483 0
M  V30 3 C -0.813986 1.50416 0.430242 0
M  V30 4 C -1.91628 0.671853 0.315592 0
M  V30 5 C -1.68028 -0.677888 0.238809 0
M  V30 6 C -0.376343 -1.12214 0.279907 0
M  V30 7 C 0.735463 -0.305145 0.394135 0
M  V30 8 C 2.06105 -0.893603 0.426071 0
M  V30 9 O 2.12422 -2.17202 0.34717 0
M  V30 10 N 3.28456 -0.237932 0.532608 0
M  V30 11 C 4.32198 -0.475922 -0.194628 0
M  V30 12 N 4.35116 -1.45397 -1.21535 0
M  V30 13 N 5.50917 0.277349 0.0292714 0
M  V30 14 S -3.01503 -1.75726 0.0895966 0
M  V30 15 C -2.32854 -3.43576 0.0161966 0
M  V30 16 O -3.75326 -1.65172 -1.2185 0
M  V30 17 O -3.92034 -1.81802 1.27139 0
M  V30 18 S -3.46656 1.3634 0.283476 0
M  V30 19 C -3.30118 3.15877 0.387342 0
M  V30 20 O -4.34264 1.11399 -0.844771 0
M  V30 21 O -4.20243 0.997964 1.56922 0
M  V30 22 H 2.1915 1.8095 1.54498 0
M  V30 23 H 1.20015 3.0049 0.724759 0
M  V30 24 H 2.3308 1.96468 -0.276497 0
M  V30 25 H -0.927169 2.58426 0.495476 0
M  V30 26 H -0.238283 -2.19835 0.216112 0
M  V30 27 H 4.16791 -2.45872 -1.09623 0
M  V30 28 H 4.58592 -1.09742 -2.18715 0
M  V30 29 H 6.44019 -0.143606 -0.178392 0
M  V30 30 H 5.42341 1.23018 0.394658 0
M  V30 31 H -3.20708 -4.11566 0.0301491 0
M  V30 32 H -1.80992 -3.56373 0.986481 0
M  V30 33 H -1.68748 -3.55507 -0.856556 0
M  V30 34 H -4.34932 3.53487 0.459658 0
M  V30 35 H -2.86376 3.4487 -0.612334 0
M  V30 36 H -2.67401 3.45466 1.22535 0
M  V30 END ATOM
M  V30 BEGIN BOND
M  V30 1 1 1 2
M  V30 2 2 2 3
M  V30 3 1 3 4
M  V30 4 2 4 5
M  V30 5 1 5 6
M  V30 6 2 6 7
M  V30 7 1 7 8
M  V30 8 2 8 9
M  V30 9 1 8 10
M  V30 10 2 10 11
M  V30 11 1 11 12
M  V30 12 1 11 13
M  V30 13 1 5 14
M  V30 14 1 14 15
M  V30 15 2 14 16
M  V30 16 2 14 17
M  V30 17 1 4 18
M  V30 18 1 18 19
M  V30 19 2 18 20
M  V30 20 2 18 21
M  V30 21 1 7 2
M  V30 22 1 1 22
M  V30 23 1 1 23
M  V30 24 1 1 24
M  V30 25 1 3 25
M  V30 26 1 6 26
M  V30 27 1 12 27
M  V30 28 1 12 28
M  V30 29 1 13 29
M  V30 30 1 13 30
M  V30 31 1 15 31
M  V30 32 1 15 32
M  V30 33 1 15 33
M  V30 34 1 19 34
M  V30 35 1 19 35
M  V30 36 1 19 36
M  V30 END BOND
M  V30 END CTAB
M  END
