
     RDKit          3D

  0  0  0  0  0  0  0  0  0  0999 V3000
M  V30 BEGIN CTAB
M  V30 COUNTS 40 44 0 0 0
M  V30 BEGIN ATOM
M  V30 1 N 7.6949 1.9616 -1.04787 0
M  V30 2 C 7.02524 0.978922 -0.266606 0
M  V30 3 C 7.73287 0.107645 0.515753 0
M  V30 4 C 7.08605 -0.827999 1.25897 0
M  V30 5 C 5.68823 -0.896913 1.22067 0
M  V30 6 C 4.97227 -0.0234542 0.435902 0
M  V30 7 C 5.62376 0.899288 -0.29613 0
M  V30 8 C 3.50954 -0.104746 0.403569 0
M  V30 9 N 2.63359 0.603057 -0.252671 0
M  V30 10 C 1.36574 0.369245 -0.143144 0
M  V30 11 C 0.963346 -0.645049 0.683091 0
M  V30 12 S 2.49462 -1.20824 1.26272 0
M  V30 13 C -0.346789 -1.01655 0.905641 0
M  V30 14 C -1.38946 -0.325582 0.252108 0
M  V30 15 C -0.985495 0.68706 -0.572628 0
M  V30 16 C 0.328596 1.06112 -0.79706 0
M  V30 17 S -2.51344 1.25521 -1.15616 0
M  V30 18 C -3.53145 0.162285 -0.306111 0
M  V30 19 N -2.65746 -0.5604 0.362497 0
M  V30 20 C -4.99441 0.0646422 -0.324609 0
M  V30 21 C -5.7324 0.910033 -1.08709 0
M  V30 22 C -7.13043 0.8081 -1.0975 0
M  V30 23 C -7.73691 -0.158129 -0.325825 0
M  V30 24 C -6.994 -1.02393 0.45418 0
M  V30 25 C -5.59594 -0.892605 0.439844 0
M  V30 26 N -7.62707 -2.01838 1.24779 0
M  V30 27 H 8.68549 1.77203 -1.31246 0
M  V30 28 H 7.24256 2.84843 -1.36103 0
M  V30 29 H 8.81032 0.186966 0.523211 0
M  V30 30 H 7.62203 -1.51762 1.87654 0
M  V30 31 H 5.20841 -1.6525 1.82378 0
M  V30 32 H 5.13312 1.61612 -0.9335 0
M  V30 33 H -0.525456 -1.83397 1.58153 0
M  V30 34 H 0.501837 1.8704 -1.46647 0
M  V30 35 H -5.27849 1.67504 -1.69987 0
M  V30 36 H -7.72027 1.47716 -1.70134 0
M  V30 37 H -8.80874 -0.232508 -0.336978 0
M  V30 38 H -4.99214 -1.55857 1.04204 0
M  V30 39 H -8.32392 -2.6696 0.814117 0
M  V30 40 H -7.43824 -2.14761 2.26654 0
M  V30 END ATOM
M  V30 BEGIN BOND
M  V30 1 1 1 2
M  V30 2 2 2 3
M  V30 3 1 3 4
M  V30 4 2 4 5
M  V30 5 1 5 6
M  V30 6 2 6 7
M  V30 7 1 6 8
M  V30 8 2 8 9
M  V30 9 1 9 10
M  V30 10 2 10 11
M  V30 11 1 11 12
M  V30 12 1 11 13
M  V30 13 2 13 14
M  V30 14 1 14 15
M  V30 15 2 15 16
M  V30 16 1 15 17
M  V30 17 1 17 18
M  V30 18 2 18 19
M  V30 19 1 18 20
M  V30 20 2 20 21
M  V30 21 1 21 22
M  V30 22 2 22 23
M  V30 23 1 23 24
M  V30 24 2 24 25
M  V30 25 1 24 26
M  V30 26 1 7 2
M  V30 27 1 12 8
M  V30 28 1 19 14
M  V30 29 1 25 20
M  V30 30 1 16 10
M  V30 31 1 1 27
M  V30 32 1 1 28
M  V30 33 1 3 29
M  V30 34 1 4 30
M  V30 35 1 5 31
M  V30 36 1 7 32
M  V30 37 1 13 33
M  V30 38 1 16 34
M  V30 39 1 21 35
M  V30 40 1 22 36
M  V30 41 1 23 37
M  V30 42 1 25 38
M  V30 43 1 26 39
M  V30 44 1 26 40
M  V30 END BOND
M  V30 END CTAB
M  END
