
     RDKit          3D

  0  0  0  0  0  0  0  0  0  0999 V3000
M  V30 BEGIN CTAB
M  V30 COUNTS 25 25 0 0 0
M  V30 BEGIN ATOM
M  V30 1 C -3.76614 -0.42058 0.154259 0
M  V30 2 O -2.5179 -1.06883 0.163498 0
M  V30 3 C -1.31078 -0.388868 0.0726536 0
M  V30 4 C -1.28311 0.986885 -0.0330459 0
M  V30 5 C -0.0900411 1.68875 -0.125081 0
M  V30 6 N -0.0843331 3.09638 -0.232516 0
M  V30 7 C 1.08798 0.973415 -0.108663 0
M  V30 8 C 1.08131 -0.402009 -0.0036623 0
M  V30 9 C -0.119443 -1.07045 0.0860754 0
M  V30 10 N -0.131007 -2.48243 0.194061 0
M  V30 11 C 2.35095 -1.11499 0.00953048 0
M  V30 12 O 2.33513 -2.36865 0.105362 0
M  V30 13 C 3.62719 -0.38953 -0.0868565 0
M  V30 14 H -3.95884 0.0499121 1.14563 0
M  V30 15 H -3.82321 0.407157 -0.591517 0
M  V30 16 H -4.59202 -1.10741 -0.100157 0
M  V30 17 H -2.2095 1.52429 -0.043876 0
M  V30 18 H -0.370097 3.52763 -1.12672 0
M  V30 19 H 0.198539 3.69225 0.562144 0
M  V30 20 H 2.01648 1.54155 -0.181963 0
M  V30 21 H -0.0268425 -2.97291 1.11132 0
M  V30 22 H -0.2441 -3.09321 -0.638237 0
M  V30 23 H 4.45143 -1.07234 0.131733 0
M  V30 24 H 3.79479 0.00904436 -1.11278 0
M  V30 25 H 3.58356 0.45496 0.648798 0
M  V30 END ATOM
M  V30 BEGIN BOND
M  V30 1 1 1 2
M  V30 2 1 2 3
M  V30 3 2 3 4
M  V30 4 1 4 5
M  V30 5 1 5 6
M  V30 6 2 5 7
M  V30 7 1 7 8
M  V30 8 2 8 9
M  V30 9 1 9 10
M  V30 10 1 8 11
M  V30 11 2 11 12
M  V30 12 1 11 13
M  V30 13 1 9 3
M  V30 14 1 1 14
M  V30 15 1 1 15
M  V30 16 1 1 16
M  V30 17 1 4 17
M  V30 18 1 6 18
M  V30 19 1 6 19
M  V30 20 1 7 20
M  V30 21 1 10 21
M  V30 22 1 10 22
M  V30 23 1 13 23
M  V30 24 1 13 24
M  V30 25 1 13 25
M  V30 END BOND
M  V30 END CTAB
M  END
