
     RDKit          3D

  0  0  0  0  0  0  0  0  0  0999 V3000
M  V30 BEGIN CTAB
M  V30 COUNTS 22 22 0 0 0
M  V30 BEGIN ATOM
M  V30 1 N 3.76197 1.1071 -0.213484 0
M  V30 2 N 2.56486 0.816729 -0.872489 0
M  V30 3 C 1.72312 -0.0540944 -0.441385 0
M  V30 4 C 0.471572 -0.35136 -1.13857 0
M  V30 5 C -0.756942 -0.0583999 -0.386892 0
M  V30 6 C -0.830012 0.513925 0.842374 0
M  V30 7 C -2.04523 0.750286 1.46392 0
M  V30 8 C -3.20421 0.396304 0.819111 0
M  V30 9 C -3.17671 -0.183197 -0.421434 0
M  V30 10 C -1.94989 -0.404121 -1.01092 0
M  V30 11 Cl -1.96241 -1.14984 -2.60434 0
M  V30 12 N 2.04982 -0.734756 0.758667 0
M  V30 13 H 4.68494 1.11664 -0.718674 0
M  V30 14 H 3.80943 1.32874 0.805989 0
M  V30 15 H 0.428696 0.239456 -2.10188 0
M  V30 16 H 0.404835 -1.43753 -1.44402 0
M  V30 17 H 0.0645165 0.789855 1.3408 0
M  V30 18 H -2.13263 1.20471 2.44275 0
M  V30 19 H -4.16237 0.580125 1.30348 0
M  V30 20 H -4.11336 -0.44109 -0.882376 0
M  V30 21 H 2.40616 -0.152359 1.54819 0
M  V30 22 H 1.96386 -1.74949 0.91118 0
M  V30 END ATOM
M  V30 BEGIN BOND
M  V30 1 1 1 2
M  V30 2 2 2 3 CFG=2
M  V30 3 1 3 4
M  V30 4 1 4 5
M  V30 5 2 5 6
M  V30 6 1 6 7
M  V30 7 2 7 8
M  V30 8 1 8 9
M  V30 9 2 9 10
M  V30 10 1 10 11
M  V30 11 1 3 12
M  V30 12 1 10 5
M  V30 13 1 1 13
M  V30 14 1 1 14
M  V30 15 1 4 15
M  V30 16 1 4 16
M  V30 17 1 6 17
M  V30 18 1 7 18
M  V30 19 1 8 19
M  V30 20 1 9 20
M  V30 21 1 12 21
M  V30 22 1 12 22
M  V30 END BOND
M  V30 END CTAB
M  END
