
     RDKit          3D

  0  0  0  0  0  0  0  0  0  0999 V3000
M  V30 BEGIN CTAB
M  V30 COUNTS 25 25 0 0 0
M  V30 BEGIN ATOM
M  V30 1 O 4.11915 0.59076 0.345943 0
M  V30 2 C 3.40111 -0.389089 -0.124326 0
M  V30 3 O 3.91564 -1.53777 -0.258076 0
M  V30 4 C 1.99388 -0.202429 -0.510087 0 CFG=2
M  V30 5 C 1.19149 0.276493 0.696434 0
M  V30 6 C -0.225757 0.477991 0.358879 0
M  V30 7 C -0.700141 1.69879 -0.101339 0
M  V30 8 C -2.03064 1.8799 -0.41581 0
M  V30 9 C -2.94277 0.850658 -0.284151 0
M  V30 10 C -2.49753 -0.355839 0.166067 0
M  V30 11 C -1.16787 -0.52902 0.477987 0
M  V30 12 N -3.39773 -1.43696 0.315664 0
M  V30 13 N 1.45332 -1.45461 -0.994812 0
M  V30 14 H 4.81857 1.05003 0.537677 0
M  V30 15 H 1.95055 0.583552 -1.29177 0
M  V30 16 H 1.25728 -0.545274 1.45712 0
M  V30 17 H 1.67273 1.15731 1.16623 0
M  V30 18 H 0.00498462 2.51349 -0.208851 0
M  V30 19 H -2.3627 2.84137 -0.770143 0
M  V30 20 H -3.98591 1.02425 -0.540227 0
M  V30 21 H -0.850683 -1.49811 0.831722 0
M  V30 22 H -4.31539 -1.27855 0.769577 0
M  V30 23 H -3.11768 -2.36835 -0.0340211 0
M  V30 24 H 1.27933 -2.09295 -0.187783 0
M  V30 25 H 0.536768 -1.25563 -1.45455 0
M  V30 END ATOM
M  V30 BEGIN BOND
M  V30 1 1 1 2
M  V30 2 2 2 3
M  V30 3 1 2 4
M  V30 4 1 4 5
M  V30 5 1 5 6
M  V30 6 2 6 7
M  V30 7 1 7 8
M  V30 8 2 8 9
M  V30 9 1 9 10
M  V30 10 2 10 11
M  V30 11 1 10 12
M  V30 12 1 4 13
M  V30 13 1 11 6
M  V30 14 1 1 14
M  V30 15 1 4 15 CFG=3
M  V30 16 1 5 16
M  V30 17 1 5 17
M  V30 18 1 7 18
M  V30 19 1 8 19
M  V30 20 1 9 20
M  V30 21 1 11 21
M  V30 22 1 12 22
M  V30 23 1 12 23
M  V30 24 1 13 24
M  V30 25 1 13 25
M  V30 END BOND
M  V30 END CTAB
M  END
