
     RDKit          3D

  0  0  0  0  0  0  0  0  0  0999 V3000
M  V30 BEGIN CTAB
M  V30 COUNTS 42 43 0 0 0
M  V30 BEGIN ATOM
M  V30 1 N 4.86909 -0.196614 -0.311722 0
M  V30 2 C 3.66856 -0.634504 0.356256 0
M  V30 3 C 2.52689 0.292469 -0.0209919 0
M  V30 4 C 2.79691 1.71987 0.377117 0
M  V30 5 C 2.27475 1.74233 1.79965 0
M  V30 6 C 0.909208 1.09654 1.59116 0
M  V30 7 C 1.27367 -0.112712 0.769498 0
M  V30 8 N 0.200413 -0.468039 -0.122091 0
M  V30 9 C -0.343548 -1.77912 -0.0654924 0
M  V30 10 O 0.0998437 -2.64051 0.756465 0
M  V30 11 C -1.43909 -2.16515 -0.972092 0 CFG=2
M  V30 12 C -2.79095 -1.68554 -0.558568 0
M  V30 13 C -2.98237 -0.251906 -0.433356 0
M  V30 14 C -2.80784 0.353082 0.81385 0
M  V30 15 C -2.97811 1.71201 0.98522 0
M  V30 16 C -3.32828 2.51239 -0.0827215 0
M  V30 17 C -3.50597 1.95121 -1.31357 0
M  V30 18 C -3.33165 0.593093 -1.46537 0
M  V30 19 N -1.52172 -3.64811 -0.933167 0
M  V30 20 H 4.6982 0.600178 -0.968035 0
M  V30 21 H 5.29452 -0.96635 -0.899287 0
M  V30 22 H 3.39462 -1.64297 -0.0272032 0
M  V30 23 H 3.80006 -0.727698 1.43966 0
M  V30 24 H 2.35506 0.218306 -1.10425 0
M  V30 25 H 3.86791 1.98892 0.322315 0
M  V30 26 H 2.14549 2.37371 -0.225088 0
M  V30 27 H 2.85318 1.05023 2.4466 0
M  V30 28 H 2.19703 2.7587 2.20378 0
M  V30 29 H 0.309364 1.83229 1.01748 0
M  V30 30 H 0.438473 0.82885 2.55691 0
M  V30 31 H 1.53652 -0.959915 1.45105 0
M  V30 32 H -0.161141 0.211791 -0.793884 0
M  V30 33 H -1.2217 -1.89904 -2.02964 0
M  V30 34 H -3.5387 -2.0803 -1.28286 0
M  V30 35 H -3.06638 -2.18546 0.41971 0
M  V30 36 H -2.53467 -0.240827 1.66862 0
M  V30 37 H -2.84319 2.19024 1.95679 0
M  V30 38 H -3.46255 3.57717 0.0474807 0
M  V30 39 H -3.77993 2.60615 -2.12867 0
M  V30 40 H -3.47198 0.149257 -2.43788 0
M  V30 41 H -1.70283 -4.01854 -1.88677 0
M  V30 42 H -0.697191 -4.05548 -0.475754 0
M  V30 END ATOM
M  V30 BEGIN BOND
M  V30 1 1 1 2
M  V30 2 1 2 3
M  V30 3 1 3 4
M  V30 4 1 4 5
M  V30 5 1 5 6
M  V30 6 1 6 7
M  V30 7 1 7 8
M  V30 8 1 8 9
M  V30 9 2 9 10
M  V30 10 1 9 11
M  V30 11 1 11 12
M  V30 12 1 12 13
M  V30 13 2 13 14
M  V30 14 1 14 15
M  V30 15 2 15 16
M  V30 16 1 16 17
M  V30 17 2 17 18
M  V30 18 1 11 19
M  V30 19 1 7 3
M  V30 20 1 18 13
M  V30 21 1 1 20
M  V30 22 1 1 21
M  V30 23 1 2 22
M  V30 24 1 2 23
M  V30 25 1 3 24
M  V30 26 1 4 25
M  V30 27 1 4 26
M  V30 28 1 5 27
M  V30 29 1 5 28
M  V30 30 1 6 29
M  V30 31 1 6 30
M  V30 32 1 7 31
M  V30 33 1 8 32
M  V30 34 1 11 33 CFG=3
M  V30 35 1 12 34
M  V30 36 1 12 35
M  V30 37 1 14 36
M  V30 38 1 15 37
M  V30 39 1 16 38
M  V30 40 1 17 39
M  V30 41 1 18 40
M  V30 42 1 19 41
M  V30 43 1 19 42
M  V30 END BOND
M  V30 END CTAB
M  END
