
     RDKit          3D

  0  0  0  0  0  0  0  0  0  0999 V3000
M  V30 BEGIN CTAB
M  V30 COUNTS 20 20 0 0 0
M  V30 BEGIN ATOM
M  V30 1 C 2.61919 -0.373515 0.88895 0
M  V30 2 C 1.87574 -0.601993 -0.408635 0
M  V30 3 O 2.42214 0.189845 -1.44516 0
M  V30 4 C 0.446179 -0.262454 -0.261162 0
M  V30 5 N 0.0252121 1.0058 -0.251695 0
M  V30 6 C -1.30079 1.31492 -0.114711 0
M  V30 7 N -1.74665 2.66705 -0.104964 0
M  V30 8 N -2.18238 0.30872 0.0115935 0
M  V30 9 C -1.78091 -0.964729 0.00442294 0
M  V30 10 N -2.63883 -2.07553 0.131175 0
M  V30 11 N -0.460969 -1.24113 -0.132846 0
M  V30 12 H 1.92439 -0.144237 1.73082 0
M  V30 13 H 3.28325 -1.23571 1.13017 0
M  V30 14 H 3.23794 0.537488 0.752514 0
M  V30 15 H 2.03554 -1.64876 -0.731374 0
M  V30 16 H 1.99343 1.08073 -1.38078 0
M  V30 17 H -2.22051 3.08573 0.749746 0
M  V30 18 H -1.63502 3.31074 -0.921855 0
M  V30 19 H -2.85718 -2.64621 -0.695826 0
M  V30 20 H -3.03978 -2.30675 1.04961 0
M  V30 END ATOM
M  V30 BEGIN BOND
M  V30 1 1 1 2
M  V30 2 1 2 3
M  V30 3 1 2 4
M  V30 4 2 4 5
M  V30 5 1 5 6
M  V30 6 1 6 7
M  V30 7 2 6 8
M  V30 8 1 8 9
M  V30 9 1 9 10
M  V30 10 2 9 11
M  V30 11 1 11 4
M  V30 12 1 1 12
M  V30 13 1 1 13
M  V30 14 1 1 14
M  V30 15 1 2 15
M  V30 16 1 3 16
M  V30 17 1 7 17
M  V30 18 1 7 18
M  V30 19 1 10 19
M  V30 20 1 10 20
M  V30 END BOND
M  V30 END CTAB
M  END
