
     RDKit          3D

  0  0  0  0  0  0  0  0  0  0999 V3000
M  V30 BEGIN CTAB
M  V30 COUNTS 41 44 0 0 0
M  V30 BEGIN ATOM
M  V30 1 N 7.27937 -0.166646 2.10075 0
M  V30 2 C 6.28899 -0.0729014 1.0934 0
M  V30 3 N 5.00518 -0.0984121 1.49586 0
M  V30 4 C 3.988 -0.0160914 0.620898 0
M  V30 5 C 2.68359 -0.0435092 1.04628 0
M  V30 6 C 1.68044 0.0421084 0.131117 0
M  V30 7 C 1.99064 0.155685 -1.21655 0
M  V30 8 S 0.676901 0.268706 -2.42806 0
M  V30 9 C -0.915243 0.210363 -1.62403 0
M  V30 10 C -1.57445 1.3435 -1.18825 0
M  V30 11 C -2.80684 1.29188 -0.566532 0
M  V30 12 C -3.40886 0.070228 -0.36923 0
M  V30 13 C -2.74959 -1.06427 -0.805152 0
M  V30 14 C -1.51787 -1.02739 -1.42783 0
M  V30 15 C -4.70098 -0.0893113 0.273067 0
M  V30 16 C -5.04177 -1.19657 1.01771 0
M  V30 17 C -6.28106 -1.32656 1.62116 0
M  V30 18 C -7.21644 -0.313671 1.47652 0
M  V30 19 C -6.89044 0.801948 0.733679 0
M  V30 20 C -5.63168 0.916537 0.130209 0
M  V30 21 C 3.29412 0.182872 -1.63911 0
M  V30 22 C 4.3209 0.0970362 -0.723262 0
M  V30 23 C 5.63133 0.124228 -1.14743 0
M  V30 24 N 5.95188 0.240468 -2.52666 0
M  V30 25 N 6.59254 0.0371395 -0.212842 0
M  V30 26 H 8.23652 0.192934 1.89971 0
M  V30 27 H 7.0863 -0.581662 3.03431 0
M  V30 28 H 2.4695 -0.131986 2.0927 0
M  V30 29 H 0.615538 0.026318 0.402405 0
M  V30 30 H -1.10127 2.30242 -1.34341 0
M  V30 31 H -3.31032 2.18564 -0.231235 0
M  V30 32 H -3.20284 -2.03664 -0.661161 0
M  V30 33 H -1.02484 -1.93549 -1.7592 0
M  V30 34 H -4.31288 -1.97108 1.12227 0
M  V30 35 H -6.57417 -2.18312 2.20988 0
M  V30 36 H -8.19895 -0.421384 1.95742 0
M  V30 37 H -7.63656 1.57645 0.636382 0
M  V30 38 H -5.43294 1.81422 -0.440115 0
M  V30 39 H 3.58082 0.270359 -2.6814 0
M  V30 40 H 5.90608 1.14377 -3.04546 0
M  V30 41 H 6.25135 -0.61811 -3.06244 0
M  V30 END ATOM
M  V30 BEGIN BOND
M  V30 1 1 1 2
M  V30 2 2 2 3
M  V30 3 1 3 4
M  V30 4 2 4 5
M  V30 5 1 5 6
M  V30 6 2 6 7
M  V30 7 1 7 8
M  V30 8 1 8 9
M  V30 9 2 9 10
M  V30 10 1 10 11
M  V30 11 2 11 12
M  V30 12 1 12 13
M  V30 13 2 13 14
M  V30 14 1 12 15
M  V30 15 2 15 16
M  V30 16 1 16 17
M  V30 17 2 17 18
M  V30 18 1 18 19
M  V30 19 2 19 20
M  V30 20 1 7 21
M  V30 21 2 21 22
M  V30 22 1 22 23
M  V30 23 1 23 24
M  V30 24 2 23 25
M  V30 25 1 25 2
M  V30 26 1 22 4
M  V30 27 1 14 9
M  V30 28 1 20 15
M  V30 29 1 1 26
M  V30 30 1 1 27
M  V30 31 1 5 28
M  V30 32 1 6 29
M  V30 33 1 10 30
M  V30 34 1 11 31
M  V30 35 1 13 32
M  V30 36 1 14 33
M  V30 37 1 16 34
M  V30 38 1 17 35
M  V30 39 1 18 36
M  V30 40 1 19 37
M  V30 41 1 20 38
M  V30 42 1 21 39
M  V30 43 1 24 40
M  V30 44 1 24 41
M  V30 END BOND
M  V30 END CTAB
M  END
