
     RDKit          3D

  0  0  0  0  0  0  0  0  0  0999 V3000
M  V30 BEGIN CTAB
M  V30 COUNTS 37 38 0 0 0
M  V30 BEGIN ATOM
M  V30 1 C -4.66902 0.9419 0.0576118 0
M  V30 2 O -3.80045 0.0745468 0.765569 0
M  V30 3 C -2.54003 -0.226947 0.237013 0
M  V30 4 C -1.4523 0.587888 0.556718 0
M  V30 5 C -1.67311 1.75347 1.45799 0
M  V30 6 C -0.197429 0.327086 0.0589682 0
M  V30 7 C 0.017789 -0.745682 -0.767905 0
M  V30 8 C 1.33673 -1.08169 -1.35344 0
M  V30 9 C 2.43102 -0.28453 -0.815984 0
M  V30 10 C 2.98159 -0.511495 0.421868 0
M  V30 11 N 2.55766 -1.55152 1.28185 0
M  V30 12 N 3.9875 0.30592 0.822441 0
M  V30 13 C 4.46882 1.31488 0.0823386 0
M  V30 14 N 5.53867 2.13904 0.590251 0
M  V30 15 N 3.93371 1.53666 -1.12295 0
M  V30 16 C 2.93376 0.754755 -1.56928 0
M  V30 17 C -1.04637 -1.55565 -1.08961 0
M  V30 18 C -2.32187 -1.30549 -0.594969 0
M  V30 19 C -3.45237 -2.19987 -0.971137 0
M  V30 20 H -4.06538 1.53835 -0.66566 0
M  V30 21 H -5.16792 1.64981 0.785357 0
M  V30 22 H -5.45873 0.43166 -0.495908 0
M  V30 23 H -2.65127 1.69939 1.96914 0
M  V30 24 H -0.862387 1.71069 2.23913 0
M  V30 25 H -1.5071 2.70034 0.905841 0
M  V30 26 H 0.648509 0.942346 0.295419 0
M  V30 27 H 1.51756 -2.16632 -1.14719 0
M  V30 28 H 1.24313 -0.995717 -2.45464 0
M  V30 29 H 1.59995 -1.72774 1.59249 0
M  V30 30 H 3.28295 -2.23417 1.66415 0
M  V30 31 H 5.41219 3.18451 0.676291 0
M  V30 32 H 6.45863 1.76315 0.887388 0
M  V30 33 H 2.53366 0.979779 -2.56046 0
M  V30 34 H -0.947342 -2.41886 -1.73629 0
M  V30 35 H -3.49616 -3.04663 -0.248033 0
M  V30 36 H -4.38708 -1.64171 -1.04929 0
M  V30 37 H -3.18747 -2.64213 -1.97046 0
M  V30 END ATOM
M  V30 BEGIN BOND
M  V30 1 1 1 2
M  V30 2 1 2 3
M  V30 3 2 3 4
M  V30 4 1 4 5
M  V30 5 1 4 6
M  V30 6 2 6 7
M  V30 7 1 7 8
M  V30 8 1 8 9
M  V30 9 2 9 10
M  V30 10 1 10 11
M  V30 11 1 10 12
M  V30 12 2 12 13
M  V30 13 1 13 14
M  V30 14 1 13 15
M  V30 15 2 15 16
M  V30 16 1 7 17
M  V30 17 2 17 18
M  V30 18 1 18 19
M  V30 19 1 18 3
M  V30 20 1 16 9
M  V30 21 1 1 20
M  V30 22 1 1 21
M  V30 23 1 1 22
M  V30 24 1 5 23
M  V30 25 1 5 24
M  V30 26 1 5 25
M  V30 27 1 6 26
M  V30 28 1 8 27
M  V30 29 1 8 28
M  V30 30 1 11 29
M  V30 31 1 11 30
M  V30 32 1 14 31
M  V30 33 1 14 32
M  V30 34 1 16 33
M  V30 35 1 17 34
M  V30 36 1 19 35
M  V30 37 1 19 36
M  V30 38 1 19 37
M  V30 END BOND
M  V30 END CTAB
M  END
