
     RDKit          3D

  0  0  0  0  0  0  0  0  0  0999 V3000
M  V30 BEGIN CTAB
M  V30 COUNTS 28 29 0 0 0
M  V30 BEGIN ATOM
M  V30 1 N 3.33147 -0.738754 -2.23489 0
M  V30 2 C 2.64856 -0.516683 -1.02254 0
M  V30 3 C 3.26708 -0.925461 0.135672 0
M  V30 4 C 2.6214 -0.718836 1.32672 0
M  V30 5 C 1.36159 -0.105015 1.35312 0
M  V30 6 C 0.73656 0.303836 0.211919 0
M  V30 7 C 1.40236 0.088039 -0.977682 0
M  V30 8 C -0.59435 0.905591 0.271958 0
M  V30 9 N -0.743595 2.12462 -0.217253 0
M  V30 10 C -1.89576 2.70043 -0.223926 0
M  V30 11 S -2.91337 1.52307 0.489127 0
M  V30 12 C -1.69444 0.300248 0.756198 0
M  V30 13 S -2.06122 -1.2669 1.43271 0
M  V30 14 O -0.979875 -1.90901 2.17858 0
M  V30 15 O -3.31822 -1.17032 2.28741 0
M  V30 16 C -2.5635 -2.32674 0.0577749 0
M  V30 17 N -2.22847 4.00863 -0.712807 0
M  V30 18 H 3.59873 0.0292677 -2.88026 0
M  V30 19 H 3.58271 -1.70934 -2.50322 0
M  V30 20 H 4.25668 -1.40489 0.0848062 0
M  V30 21 H 3.0736 -1.02469 2.24996 0
M  V30 22 H 0.931165 0.0506316 2.33996 0
M  V30 23 H 0.927951 0.403829 -1.89041 0
M  V30 24 H -1.68362 -2.62055 -0.527847 0
M  V30 25 H -3.1344 -3.19541 0.444692 0
M  V30 26 H -3.24147 -1.7766 -0.617179 0
M  V30 27 H -1.95264 4.25281 -1.66746 0
M  V30 28 H -2.73491 4.71818 -0.145137 0
M  V30 END ATOM
M  V30 BEGIN BOND
M  V30 1 1 1 2
M  V30 2 2 2 3
M  V30 3 1 3 4
M  V30 4 2 4 5
M  V30 5 1 5 6
M  V30 6 2 6 7
M  V30 7 1 6 8
M  V30 8 1 8 9
M  V30 9 2 9 10
M  V30 10 1 10 11
M  V30 11 1 11 12
M  V30 12 1 12 13
M  V30 13 2 13 14
M  V30 14 2 13 15
M  V30 15 1 13 16
M  V30 16 1 10 17
M  V30 17 1 7 2
M  V30 18 2 12 8
M  V30 19 1 1 18
M  V30 20 1 1 19
M  V30 21 1 3 20
M  V30 22 1 4 21
M  V30 23 1 5 22
M  V30 24 1 7 23
M  V30 25 1 16 24
M  V30 26 1 16 25
M  V30 27 1 16 26
M  V30 28 1 17 27
M  V30 29 1 17 28
M  V30 END BOND
M  V30 END CTAB
M  END
