
     RDKit          3D

  0  0  0  0  0  0  0  0  0  0999 V3000
M  V30 BEGIN CTAB
M  V30 COUNTS 24 25 0 0 0
M  V30 BEGIN ATOM
M  V30 1 N 3.73095 1.02882 -1.11062 0
M  V30 2 C 3.71603 0.233143 0.080275 0
M  V30 3 C 2.36388 0.108146 0.686908 0
M  V30 4 N 1.80665 0.924592 1.61348 0
M  V30 5 N 0.595737 0.467566 1.88777 0
M  V30 6 N 0.341997 -0.617816 1.17385 0
M  V30 7 C 1.42083 -0.862925 0.421022 0
M  V30 8 C -0.906645 -1.34413 1.25787 0
M  V30 9 C -1.84203 -0.760806 0.242704 0
M  V30 10 N -2.01998 -1.11082 -1.0336 0
M  V30 11 N -2.94809 -0.318992 -1.54037 0
M  V30 12 C -3.3865 0.553647 -0.608209 0
M  V30 13 N -2.68049 0.262827 0.509249 0
M  V30 14 N -4.36768 1.57136 -0.719613 0
M  V30 15 H 4.37685 1.83871 -1.00148 0
M  V30 16 H 2.79099 1.40525 -1.36644 0
M  V30 17 H 4.38436 0.700988 0.849171 0
M  V30 18 H 4.17288 -0.749993 -0.14974 0
M  V30 19 H 1.49385 -1.69875 -0.268521 0
M  V30 20 H -1.34908 -1.21534 2.26761 0
M  V30 21 H -0.765262 -2.42253 1.05341 0
M  V30 22 H -1.48457 -1.88455 -1.48594 0
M  V30 23 H -4.29289 2.26406 -1.48863 0
M  V30 24 H -5.15176 1.62753 -0.04442 0
M  V30 END ATOM
M  V30 BEGIN BOND
M  V30 1 1 1 2
M  V30 2 1 2 3
M  V30 3 1 3 4
M  V30 4 2 4 5
M  V30 5 1 5 6
M  V30 6 1 6 7
M  V30 7 1 6 8
M  V30 8 1 8 9
M  V30 9 1 9 10
M  V30 10 1 10 11
M  V30 11 2 11 12
M  V30 12 1 12 13
M  V30 13 1 12 14
M  V30 14 2 7 3
M  V30 15 2 13 9
M  V30 16 1 1 15
M  V30 17 1 1 16
M  V30 18 1 2 17
M  V30 19 1 2 18
M  V30 20 1 7 19
M  V30 21 1 8 20
M  V30 22 1 8 21
M  V30 23 1 10 22
M  V30 24 1 14 23
M  V30 25 1 14 24
M  V30 END BOND
M  V30 END CTAB
M  END
