
     RDKit          3D

  0  0  0  0  0  0  0  0  0  0999 V3000
M  V30 BEGIN CTAB
M  V30 COUNTS 31 33 0 0 0
M  V30 BEGIN ATOM
M  V30 1 N 5.72744 1.54085 -0.0158312 0
M  V30 2 C 4.51088 0.79341 -0.0167665 0
M  V30 3 N 3.34277 1.42639 -0.0767268 0
M  V30 4 C 2.16078 0.794232 -0.0817461 0
M  V30 5 C 0.96126 1.46971 -0.144433 0
M  V30 6 C -0.214096 0.731896 -0.144649 0
M  V30 7 C -0.208782 -0.638872 -0.0845574 0
M  V30 8 S -1.68715 -1.63503 -0.081841 0
M  V30 9 C -3.1486 -0.59973 -0.167484 0
M  V30 10 C -3.69459 -0.241502 -1.38343 0
M  V30 11 C -4.81878 0.554692 -1.45724 0
M  V30 12 C -5.44852 1.02903 -0.324425 0
M  V30 13 F -6.55005 1.80854 -0.422848 0
M  V30 14 C -4.89801 0.667516 0.888303 0
M  V30 15 C -3.77393 -0.128458 0.968371 0
M  V30 16 C 1.00946 -1.31519 -0.0213165 0
M  V30 17 Cl 1.03974 -3.06271 0.0559381 0
M  V30 18 C 2.18311 -0.598356 -0.0202305 0
M  V30 19 C 3.39164 -1.25144 0.0417263 0
M  V30 20 N 3.49653 -2.66473 0.106427 0
M  V30 21 N 4.5288 -0.539527 0.0420185 0
M  V30 22 H 6.62698 1.03264 -0.158954 0
M  V30 23 H 5.73228 2.56643 0.1228 0
M  V30 24 H 0.987001 2.54886 -0.190913 0
M  V30 25 H -1.15943 1.25118 -0.193482 0
M  V30 26 H -3.20211 -0.612616 -2.27616 0
M  V30 27 H -5.21403 0.811743 -2.43185 0
M  V30 28 H -5.40122 1.04622 1.78016 0
M  V30 29 H -3.35697 -0.401112 1.93475 0
M  V30 30 H 3.56381 -3.22848 -0.758591 0
M  V30 31 H 3.5138 -3.1556 1.02164 0
M  V30 END ATOM
M  V30 BEGIN BOND
M  V30 1 1 1 2
M  V30 2 2 2 3
M  V30 3 1 3 4
M  V30 4 2 4 5
M  V30 5 1 5 6
M  V30 6 2 6 7
M  V30 7 1 7 8
M  V30 8 1 8 9
M  V30 9 2 9 10
M  V30 10 1 10 11
M  V30 11 2 11 12
M  V30 12 1 12 13
M  V30 13 1 12 14
M  V30 14 2 14 15
M  V30 15 1 7 16
M  V30 16 1 16 17
M  V30 17 2 16 18
M  V30 18 1 18 19
M  V30 19 1 19 20
M  V30 20 2 19 21
M  V30 21 1 21 2
M  V30 22 1 18 4
M  V30 23 1 15 9
M  V30 24 1 1 22
M  V30 25 1 1 23
M  V30 26 1 5 24
M  V30 27 1 6 25
M  V30 28 1 10 26
M  V30 29 1 11 27
M  V30 30 1 14 28
M  V30 31 1 15 29
M  V30 32 1 20 30
M  V30 33 1 20 31
M  V30 END BOND
M  V30 END CTAB
M  END
