
     RDKit          3D

  0  0  0  0  0  0  0  0  0  0999 V3000
M  V30 BEGIN CTAB
M  V30 COUNTS 28 28 0 0 0
M  V30 BEGIN ATOM
M  V30 1 C 0.0945052 -0.82191 -2.20374 0
M  V30 2 C -0.645303 -0.4158 -0.997287 0
M  V30 3 C -1.90074 0.194734 -1.09508 0
M  V30 4 C -2.55967 0.550351 0.060497 0
M  V30 5 N -3.82078 1.16242 -0.0391149 0
M  V30 6 C -2.01251 0.319758 1.32248 0
M  V30 7 C -0.776332 -0.281655 1.40362 0
M  V30 8 C -0.0991395 -0.646112 0.238027 0
M  V30 9 C 1.23674 -1.27884 0.375138 0
M  V30 10 C 2.28111 -0.264821 0.0927398 0
M  V30 11 O 1.9835 0.949628 -0.192893 0
M  V30 12 O 3.63711 -0.541621 0.113284 0
M  V30 13 C 4.61223 0.466905 -0.165872 0
M  V30 14 N -2.74274 0.709406 2.47362 0
M  V30 15 H -0.689485 -0.925476 -3.0188 0
M  V30 16 H 0.519765 -1.84875 -2.14163 0
M  V30 17 H 0.791726 -0.0715073 -2.59616 0
M  V30 18 H -2.30634 0.362977 -2.08748 0
M  V30 19 H -3.91357 2.08035 -0.516442 0
M  V30 20 H -4.64454 0.688517 0.365825 0
M  V30 21 H -0.315514 -0.479543 2.37496 0
M  V30 22 H 1.38909 -2.10693 -0.34591 0
M  V30 23 H 1.36107 -1.62301 1.42692 0
M  V30 24 H 5.56888 0.108895 0.268631 0
M  V30 25 H 4.26147 1.40636 0.316501 0
M  V30 26 H 4.71261 0.585974 -1.2638 0
M  V30 27 H -3.78023 0.670692 2.51276 0
M  V30 28 H -2.24292 1.04902 3.31921 0
M  V30 END ATOM
M  V30 BEGIN BOND
M  V30 1 1 1 2
M  V30 2 2 2 3
M  V30 3 1 3 4
M  V30 4 1 4 5
M  V30 5 2 4 6
M  V30 6 1 6 7
M  V30 7 2 7 8
M  V30 8 1 8 9
M  V30 9 1 9 10
M  V30 10 2 10 11
M  V30 11 1 10 12
M  V30 12 1 12 13
M  V30 13 1 6 14
M  V30 14 1 8 2
M  V30 15 1 1 15
M  V30 16 1 1 16
M  V30 17 1 1 17
M  V30 18 1 3 18
M  V30 19 1 5 19
M  V30 20 1 5 20
M  V30 21 1 7 21
M  V30 22 1 9 22
M  V30 23 1 9 23
M  V30 24 1 13 24
M  V30 25 1 13 25
M  V30 26 1 13 26
M  V30 27 1 14 27
M  V30 28 1 14 28
M  V30 END BOND
M  V30 END CTAB
M  END
