
     RDKit          3D

  0  0  0  0  0  0  0  0  0  0999 V3000
M  V30 BEGIN CTAB
M  V30 COUNTS 27 27 0 0 0
M  V30 BEGIN ATOM
M  V30 1 C -1.23172 0.129774 -0.541935 0 CFG=2
M  V30 2 N -1.08271 -1.30594 -0.367433 0
M  V30 3 C -0.295894 0.785343 0.456689 0
M  V30 4 C 1.10504 0.411083 0.247039 0
M  V30 5 C 1.69717 -0.677121 0.851879 0
M  V30 6 C 3.02568 -0.99095 0.62184 0
M  V30 7 C 3.77454 -0.198117 -0.23116 0
M  V30 8 O 5.11058 -0.511433 -0.464209 0
M  V30 9 C 3.19698 0.892812 -0.843117 0
M  V30 10 C 1.88545 1.17232 -0.593419 0
M  V30 11 C -2.64025 0.472854 -0.23243 0
M  V30 12 O -3.06192 1.66716 -0.302814 0
M  V30 13 N -3.58864 -0.510977 0.157422 0
M  V30 14 N -4.90706 -0.211552 0.450328 0
M  V30 15 H -1.03141 0.434791 -1.56975 0
M  V30 16 H -1.13969 -1.59564 0.618655 0
M  V30 17 H -1.65882 -1.86661 -1.00182 0
M  V30 18 H -0.645263 0.603267 1.49712 0
M  V30 19 H -0.390284 1.88018 0.29355 0
M  V30 20 H 1.12439 -1.29883 1.51571 0
M  V30 21 H 3.51745 -1.84355 1.086 0
M  V30 22 H 5.65485 0.0614903 -1.0817 0
M  V30 23 H 3.78165 1.533 -1.52489 0
M  V30 24 H 1.46907 2.05045 -1.10295 0
M  V30 25 H -3.25105 -1.50327 0.219302 0
M  V30 26 H -5.10988 -0.134137 1.45597 0
M  V30 27 H -5.30825 0.553578 -0.129275 0
M  V30 END ATOM
M  V30 BEGIN BOND
M  V30 1 1 1 2
M  V30 2 1 1 3
M  V30 3 1 3 4
M  V30 4 2 4 5
M  V30 5 1 5 6
M  V30 6 2 6 7
M  V30 7 1 7 8
M  V30 8 1 7 9
M  V30 9 2 9 10
M  V30 10 1 1 11
M  V30 11 2 11 12
M  V30 12 1 11 13
M  V30 13 1 13 14
M  V30 14 1 10 4
M  V30 15 1 1 15 CFG=3
M  V30 16 1 2 16
M  V30 17 1 2 17
M  V30 18 1 3 18
M  V30 19 1 3 19
M  V30 20 1 5 20
M  V30 21 1 6 21
M  V30 22 1 8 22
M  V30 23 1 9 23
M  V30 24 1 10 24
M  V30 25 1 13 25
M  V30 26 1 14 26
M  V30 27 1 14 27
M  V30 END BOND
M  V30 END CTAB
M  END
