
     RDKit          3D

  0  0  0  0  0  0  0  0  0  0999 V3000
M  V30 BEGIN CTAB
M  V30 COUNTS 28 29 0 0 0
M  V30 BEGIN ATOM
M  V30 1 O -4.78141 1.1416 -0.222364 0 CHG=-1
M  V30 2 N -3.68793 0.907158 0.583389 0 CHG=1
M  V30 3 O -3.7206 1.42942 1.71494 0
M  V30 4 C -2.58892 0.115707 0.146593 0
M  V30 5 C -2.44028 -0.505543 -1.06721 0
M  V30 6 N -3.38058 -0.476339 -2.14837 0
M  V30 7 N -1.25534 -1.13862 -1.04374 0
M  V30 8 N -0.665804 -0.940319 0.120429 0
M  V30 9 C -1.47386 -0.16933 0.866551 0
M  V30 10 N -1.15601 0.251233 2.20706 0
M  V30 11 C 0.651959 -1.47616 0.515638 0
M  V30 12 C 1.74839 -0.547052 0.140629 0
M  V30 13 C 2.235 0.39987 1.00709 0
M  V30 14 C 3.25985 1.2497 0.612177 0
M  V30 15 C 3.81077 1.16799 -0.644338 0
M  V30 16 C 3.33814 0.22532 -1.53012 0
M  V30 17 C 2.3239 -0.613276 -1.13472 0
M  V30 18 H -3.52551 -1.33662 -2.70822 0
M  V30 19 H -3.92699 0.367048 -2.40087 0
M  V30 20 H -1.13992 1.25805 2.45422 0
M  V30 21 H -0.932547 -0.420775 2.97347 0
M  V30 22 H 0.664933 -1.601 1.61053 0
M  V30 23 H 0.822752 -2.4236 -0.0397597 0
M  V30 24 H 1.85544 0.518301 2.00005 0
M  V30 25 H 3.62833 1.98685 1.30708 0
M  V30 26 H 4.61886 1.83433 -0.962986 0
M  V30 27 H 3.76635 0.145705 -2.53788 0
M  V30 28 H 1.95101 -1.34964 -1.81926 0
M  V30 END ATOM
M  V30 BEGIN BOND
M  V30 1 1 1 2
M  V30 2 2 2 3
M  V30 3 1 2 4
M  V30 4 1 4 5
M  V30 5 1 5 6
M  V30 6 2 5 7
M  V30 7 1 7 8
M  V30 8 1 8 9
M  V30 9 1 9 10
M  V30 10 1 8 11
M  V30 11 1 11 12
M  V30 12 2 12 13
M  V30 13 1 13 14
M  V30 14 2 14 15
M  V30 15 1 15 16
M  V30 16 2 16 17
M  V30 17 2 9 4
M  V30 18 1 17 12
M  V30 19 1 6 18
M  V30 20 1 6 19
M  V30 21 1 10 20
M  V30 22 1 10 21
M  V30 23 1 11 22
M  V30 24 1 11 23
M  V30 25 1 13 24
M  V30 26 1 14 25
M  V30 27 1 15 26
M  V30 28 1 16 27
M  V30 29 1 17 28
M  V30 END BOND
M  V30 END CTAB
M  END
