
     RDKit          3D

  0  0  0  0  0  0  0  0  0  0999 V3000
M  V30 BEGIN CTAB
M  V30 COUNTS 37 39 0 0 0
M  V30 BEGIN ATOM
M  V30 1 N -4.73745 -3.07027 -0.069536 0
M  V30 2 N -3.3443 -2.84247 -0.0366026 0
M  V30 3 C -2.83505 -1.52544 -0.0094076 0
M  V30 4 O -3.63813 -0.565684 -0.0129507 0
M  V30 5 C -1.3851 -1.33692 0.019022 0
M  V30 6 C -0.682501 -0.157753 0.0551378 0
M  V30 7 C 0.6609 -0.450817 0.0636268 0
M  V30 8 C 1.81887 0.307797 0.099126 0
M  V30 9 C 3.05468 -0.284097 0.1036 0
M  V30 10 C 3.19955 -1.66426 0.0729163 0
M  V30 11 C 2.0497 -2.42362 0.0377741 0
M  V30 12 C 0.790346 -1.83214 0.0330098 0
M  V30 13 N -0.46171 -2.3146 0.0068817 0
M  V30 14 S 4.47007 0.728783 0.148281 0
M  V30 15 N 4.99219 1.01736 -1.45625 0
M  V30 16 O 4.1614 2.03844 0.846377 0
M  V30 17 O 5.54292 0.0646764 0.971983 0
M  V30 18 C -1.20002 1.18927 0.0936671 0
M  V30 19 C -1.7301 1.78765 -1.03533 0
M  V30 20 C -2.18025 3.07974 -0.931726 0
M  V30 21 C -2.14738 3.83988 0.21749 0
M  V30 22 Cl -2.74351 5.49222 0.273905 0
M  V30 23 C -1.60712 3.19852 1.32584 0
M  V30 24 C -1.1435 1.9034 1.26801 0
M  V30 25 H -4.89235 -4.04675 -0.435788 0
M  V30 26 H -5.12476 -3.11148 0.920432 0
M  V30 27 H -2.69866 -3.65868 -0.0282351 0
M  V30 28 H 1.74368 1.39009 0.124142 0
M  V30 29 H 4.18344 -2.13655 0.0728032 0
M  V30 30 H 2.12228 -3.49498 0.014418 0
M  V30 31 H -0.689676 -3.33818 -0.01886 0
M  V30 32 H 5.68484 0.310028 -1.78807 0
M  V30 33 H 5.42146 1.95195 -1.58439 0
M  V30 34 H -1.77372 1.21518 -1.96373 0
M  V30 35 H -2.59144 3.5389 -1.82935 0
M  V30 36 H -1.56748 3.76471 2.24765 0
M  V30 37 H -0.722096 1.4361 2.18414 0
M  V30 END ATOM
M  V30 BEGIN BOND
M  V30 1 1 1 2
M  V30 2 1 2 3
M  V30 3 2 3 4
M  V30 4 1 3 5
M  V30 5 2 5 6
M  V30 6 1 6 7
M  V30 7 2 7 8
M  V30 8 1 8 9
M  V30 9 2 9 10
M  V30 10 1 10 11
M  V30 11 2 11 12
M  V30 12 1 12 13
M  V30 13 1 9 14
M  V30 14 1 14 15
M  V30 15 2 14 16
M  V30 16 2 14 17
M  V30 17 1 6 18
M  V30 18 2 18 19
M  V30 19 1 19 20
M  V30 20 2 20 21
M  V30 21 1 21 22
M  V30 22 1 21 23
M  V30 23 2 23 24
M  V30 24 1 13 5
M  V30 25 1 24 18
M  V30 26 1 12 7
M  V30 27 1 1 25
M  V30 28 1 1 26
M  V30 29 1 2 27
M  V30 30 1 8 28
M  V30 31 1 10 29
M  V30 32 1 11 30
M  V30 33 1 13 31
M  V30 34 1 15 32
M  V30 35 1 15 33
M  V30 36 1 19 34
M  V30 37 1 20 35
M  V30 38 1 23 36
M  V30 39 1 24 37
M  V30 END BOND
M  V30 END CTAB
M  END
