
     RDKit          3D

  0  0  0  0  0  0  0  0  0  0999 V3000
M  V30 BEGIN CTAB
M  V30 COUNTS 39 40 0 0 0
M  V30 BEGIN ATOM
M  V30 1 O 1.14305 1.62667 2.54684 0
M  V30 2 C 1.99399 1.76007 1.63702 0
M  V30 3 C 3.26208 2.40737 1.9923 0
M  V30 4 S 4.3923 2.49517 0.609478 0
M  V30 5 C 4.96983 0.88491 0.11044 0
M  V30 6 N 5.83699 0.676726 -0.915907 0
M  V30 7 N 6.06506 -0.615802 -1.02907 0
M  V30 8 C 5.36597 -1.28459 -0.0956843 0
M  V30 9 N 4.69563 -0.325179 0.596443 0
M  V30 10 N 5.33549 -2.69963 0.120104 0
M  V30 11 N 1.71816 1.29924 0.336107 0
M  V30 12 C 0.476991 0.678476 0.0222763 0
M  V30 13 C -0.722781 1.56674 0.229192 0
M  V30 14 C -1.91323 0.759702 -0.147442 0
M  V30 15 C -2.58239 0.00429467 0.784683 0
M  V30 16 C -3.68159 -0.736891 0.406854 0
M  V30 17 C -4.15704 -0.761283 -0.889248 0
M  V30 18 C -3.45388 0.0132762 -1.79484 0
M  V30 19 C -2.35393 0.76281 -1.4464 0
M  V30 20 S -5.55381 -1.70431 -1.35721 0
M  V30 21 O -5.39081 -2.21762 -2.73765 0
M  V30 22 O -5.69403 -2.8033 -0.338675 0
M  V30 23 N -6.93429 -0.646499 -1.19473 0
M  V30 24 H 3.72408 1.7562 2.78967 0
M  V30 25 H 3.09734 3.37809 2.49035 0
M  V30 26 H 4.06564 -0.514855 1.38553 0
M  V30 27 H 4.97028 -3.36515 -0.587739 0
M  V30 28 H 5.69344 -3.07526 1.02051 0
M  V30 29 H 2.42325 1.4031 -0.447397 0
M  V30 30 H 0.321953 -0.195973 0.721331 0
M  V30 31 H 0.414342 0.312696 -1.02465 0
M  V30 32 H -0.867274 1.91575 1.24649 0
M  V30 33 H -0.702643 2.44429 -0.475252 0
M  V30 34 H -2.24744 -0.0123697 1.82632 0
M  V30 35 H -4.2218 -1.33991 1.13596 0
M  V30 36 H -3.81635 0.0056506 -2.82351 0
M  V30 37 H -1.8448 1.34841 -2.19706 0
M  V30 38 H -7.08397 -0.14171 -2.10253 0
M  V30 39 H -6.7438 0.00792169 -0.402912 0
M  V30 END ATOM
M  V30 BEGIN BOND
M  V30 1 2 1 2
M  V30 2 1 2 3
M  V30 3 1 3 4
M  V30 4 1 4 5
M  V30 5 2 5 6
M  V30 6 1 6 7
M  V30 7 2 7 8
M  V30 8 1 8 9
M  V30 9 1 8 10
M  V30 10 1 2 11
M  V30 11 1 11 12
M  V30 12 1 12 13
M  V30 13 1 13 14
M  V30 14 2 14 15
M  V30 15 1 15 16
M  V30 16 2 16 17
M  V30 17 1 17 18
M  V30 18 2 18 19
M  V30 19 1 17 20
M  V30 20 2 20 21
M  V30 21 2 20 22
M  V30 22 1 20 23
M  V30 23 1 9 5
M  V30 24 1 19 14
M  V30 25 1 3 24
M  V30 26 1 3 25
M  V30 27 1 9 26
M  V30 28 1 10 27
M  V30 29 1 10 28
M  V30 30 1 11 29
M  V30 31 1 12 30
M  V30 32 1 12 31
M  V30 33 1 13 32
M  V30 34 1 13 33
M  V30 35 1 15 34
M  V30 36 1 16 35
M  V30 37 1 18 36
M  V30 38 1 19 37
M  V30 39 1 23 38
M  V30 40 1 23 39
M  V30 END BOND
M  V30 END CTAB
M  END
