
     RDKit          3D

  0  0  0  0  0  0  0  0  0  0999 V3000
M  V30 BEGIN CTAB
M  V30 COUNTS 23 24 0 0 0
M  V30 BEGIN ATOM
M  V30 1 N -3.63182 -1.87806 -0.315885 0
M  V30 2 N -2.58151 -1.65926 0.564281 0
M  V30 3 C -1.70936 -0.556364 0.365128 0
M  V30 4 N -2.15292 0.698175 0.218878 0
M  V30 5 C -1.33443 1.74849 0.0380393 0
M  V30 6 N -1.83918 3.06359 -0.119124 0
M  V30 7 N -0.00717769 1.4832 0.00876935 0
M  V30 8 C 0.523874 0.266218 0.145791 0
M  V30 9 C -0.340939 -0.78147 0.329113 0
M  V30 10 N 1.94963 0.0863015 0.0958335 0
M  V30 11 C 2.63598 -1.03681 0.202156 0
M  V30 12 C 4.00266 -0.750209 0.0974687 0
M  V30 13 C 4.07631 0.613391 -0.0766706 0
M  V30 14 N 2.81747 1.07166 -0.070517 0
M  V30 15 H -4.53634 -1.4636 -0.0455953 0
M  V30 16 H -3.43253 -1.54921 -1.28862 0
M  V30 17 H -2.44118 -2.30539 1.36632 0
M  V30 18 H -1.33643 3.75928 -0.697407 0
M  V30 19 H -2.71428 3.33974 0.34568 0
M  V30 20 H 0.012032 -1.80305 0.449672 0
M  V30 21 H 2.24072 -2.04 0.349861 0
M  V30 22 H 4.80524 -1.47761 0.148787 0
M  V30 23 H 4.99418 1.17099 -0.192797 0
M  V30 END ATOM
M  V30 BEGIN BOND
M  V30 1 1 1 2
M  V30 2 1 2 3
M  V30 3 2 3 4
M  V30 4 1 4 5
M  V30 5 1 5 6
M  V30 6 2 5 7
M  V30 7 1 7 8
M  V30 8 2 8 9
M  V30 9 1 8 10
M  V30 10 1 10 11
M  V30 11 2 11 12
M  V30 12 1 12 13
M  V30 13 2 13 14
M  V30 14 1 9 3
M  V30 15 1 14 10
M  V30 16 1 1 15
M  V30 17 1 1 16
M  V30 18 1 2 17
M  V30 19 1 6 18
M  V30 20 1 6 19
M  V30 21 1 9 20
M  V30 22 1 11 21
M  V30 23 1 12 22
M  V30 24 1 13 23
M  V30 END BOND
M  V30 END CTAB
M  END
