
     RDKit          3D

  0  0  0  0  0  0  0  0  0  0999 V3000
M  V30 BEGIN CTAB
M  V30 COUNTS 38 41 0 0 0
M  V30 BEGIN ATOM
M  V30 1 N 3.7174 -1.90572 1.30247 0
M  V30 2 C 3.7984 -0.661748 0.634484 0
M  V30 3 N 2.79098 0.204079 0.629518 0
M  V30 4 C 2.84733 1.39371 0.00139012 0
M  V30 5 C 1.6526 2.26101 0.0761478 0
M  V30 6 S 0.49068 1.98035 -1.29072 0
M  V30 7 C -0.238103 0.357368 -1.21635 0
M  V30 8 N 0.30638 -0.757237 -1.7954 0
M  V30 9 N -0.456606 -1.79147 -1.57185 0
M  V30 10 C -1.51934 -1.39747 -0.84528 0
M  V30 11 N -1.37044 -0.0714167 -0.634712 0
M  V30 12 C -2.31476 0.578228 0.0763006 0
M  V30 13 C -2.2282 1.90731 0.320154 0
M  V30 14 C -3.24019 2.52397 1.0613 0
M  V30 15 C -4.30376 1.79457 1.53372 0
M  V30 16 C -4.39375 0.444121 1.28658 0
M  V30 17 C -3.4003 -0.176359 0.555857 0
M  V30 18 C -3.48792 -1.5286 0.303324 0
M  V30 19 O -4.47448 -2.21451 0.739231 0
M  V30 20 N -2.54045 -2.14917 -0.403862 0
M  V30 21 C -2.61466 -3.57929 -0.683053 0
M  V30 22 N 3.96643 1.71836 -0.646151 0
M  V30 23 C 5.0098 0.848913 -0.654972 0
M  V30 24 N 4.93734 -0.351157 -0.0145578 0
M  V30 25 N 6.22065 1.12982 -1.32063 0
M  V30 26 H 3.41507 -2.73087 0.762573 0
M  V30 27 H 3.95537 -1.98423 2.30644 0
M  V30 28 H 1.09262 2.03018 1.02876 0
M  V30 29 H 1.97886 3.31878 0.11598 0
M  V30 30 H -1.43921 2.51349 -0.0215055 0
M  V30 31 H -3.1527 3.57357 1.24288 0
M  V30 32 H -5.10545 2.24727 2.11288 0
M  V30 33 H -5.20096 -0.153368 1.63515 0
M  V30 34 H -2.78649 -3.72995 -1.7631 0
M  V30 35 H -1.74911 -4.13704 -0.305472 0
M  V30 36 H -3.51229 -3.97974 -0.155025 0
M  V30 37 H 7.13637 1.03269 -0.843547 0
M  V30 38 H 6.21288 1.44155 -2.31001 0
M  V30 END ATOM
M  V30 BEGIN BOND
M  V30 1 1 1 2
M  V30 2 2 2 3
M  V30 3 1 3 4
M  V30 4 1 4 5
M  V30 5 1 5 6
M  V30 6 1 6 7
M  V30 7 2 7 8
M  V30 8 1 8 9
M  V30 9 2 9 10
M  V30 10 1 10 11
M  V30 11 1 11 12
M  V30 12 2 12 13
M  V30 13 1 13 14
M  V30 14 2 14 15
M  V30 15 1 15 16
M  V30 16 2 16 17
M  V30 17 1 17 18
M  V30 18 2 18 19
M  V30 19 1 18 20
M  V30 20 1 20 21
M  V30 21 2 4 22
M  V30 22 1 22 23
M  V30 23 2 23 24
M  V30 24 1 23 25
M  V30 25 1 24 2
M  V30 26 1 11 7
M  V30 27 1 17 12
M  V30 28 1 20 10
M  V30 29 1 1 26
M  V30 30 1 1 27
M  V30 31 1 5 28
M  V30 32 1 5 29
M  V30 33 1 13 30
M  V30 34 1 14 31
M  V30 35 1 15 32
M  V30 36 1 16 33
M  V30 37 1 21 34
M  V30 38 1 21 35
M  V30 39 1 21 36
M  V30 40 1 25 37
M  V30 41 1 25 38
M  V30 END BOND
M  V30 END CTAB
M  END
