
     RDKit          3D

  0  0  0  0  0  0  0  0  0  0999 V3000
M  V30 BEGIN CTAB
M  V30 COUNTS 94 95 0 0 0
M  V30 BEGIN ATOM
M  V30 1 N 7.67938 4.09373 3.6902 0
M  V30 2 S 6.66035 4.53335 2.37799 0
M  V30 3 O 5.27069 4.77531 2.90412 0
M  V30 4 O 7.24687 5.79548 1.77375 0
M  V30 5 C 6.67351 3.3453 1.09009 0
M  V30 6 C 5.76927 2.30622 1.0341 0
M  V30 7 C 5.75517 1.36552 -0.00343385 0
M  V30 8 C 6.66193 1.44393 -1.02691 0
M  V30 9 C 6.72328 0.521519 -2.1926 0
M  V30 10 C 7.55235 -0.687731 -2.00701 0
M  V30 11 N 7.11328 -1.59899 -0.982273 0
M  V30 12 C 5.85295 -2.23777 -1.08043 0
M  V30 13 O 5.11357 -2.00029 -2.06065 0
M  V30 14 C 5.32945 -3.21004 -0.0667091 0
M  V30 15 N 4.01668 -3.67671 -0.42051 0
M  V30 16 C 2.96281 -2.72492 -0.239759 0
M  V30 17 C 1.69691 -3.08068 -0.91912 0
M  V30 18 N 0.618118 -2.11405 -0.663414 0
M  V30 19 C 0.863111 -0.856934 -1.23466 0
M  V30 20 C 0.0302994 0.292976 -0.850278 0
M  V30 21 N -1.33972 0.370626 -1.13157 0
M  V30 22 C -1.70162 0.521675 -2.48012 0
M  V30 23 C -1.42543 1.85557 -3.06836 0
M  V30 24 O -0.90652 2.87058 -2.30038 0
M  V30 25 O -1.67065 2.04775 -4.27496 0
M  V30 26 C -2.23845 0.387282 -0.0760029 0
M  V30 27 C -3.63587 0.759056 -0.263431 0
M  V30 28 O -4.15049 1.13554 -1.31906 0
M  V30 29 N -4.51325 0.682561 0.879486 0
M  V30 30 C -5.8893 1.04073 0.708391 0
M  V30 31 C -6.73892 0.884965 1.94709 0
M  V30 32 C -8.15236 1.28075 1.65679 0
M  V30 33 C -9.06492 0.378761 1.16165 0
M  V30 34 C -10.374 0.74783 0.888165 0
M  V30 35 C -10.81 2.03347 1.10372 0
M  V30 36 C -9.87496 2.93682 1.60593 0
M  V30 37 C -8.56432 2.57694 1.88125 0
M  V30 38 S -12.4439 2.53872 0.758956 0
M  V30 39 N -12.5108 3.39368 -0.741075 0
M  V30 40 O -13.3087 1.30107 0.589656 0
M  V30 41 O -13.0373 3.34619 1.85777 0
M  V30 42 C -0.554855 -2.81621 -1.14031 0
M  V30 43 C -0.877063 -3.94283 -0.199028 0
M  V30 44 O -0.317431 -4.07248 1.04967 0
M  V30 45 O -1.70505 -4.80124 -0.583674 0
M  V30 46 C 3.76828 -4.97561 0.133793 0
M  V30 47 C 4.59217 -6.02647 -0.507091 0
M  V30 48 O 5.34612 -5.76104 -1.63137 0
M  V30 49 O 4.57336 -7.17159 0.0164186 0
M  V30 50 C 7.58356 2.50641 -0.963183 0
M  V30 51 C 7.58988 3.42216 0.0562885 0
M  V30 52 H 8.61614 3.74798 3.4145 0
M  V30 53 H 7.21273 3.35892 4.26196 0
M  V30 54 H 5.04834 2.2339 1.8445 0
M  V30 55 H 5.03641 0.572561 -0.019352 0
M  V30 56 H 5.68453 0.278642 -2.44814 0
M  V30 57 H 7.16235 1.08349 -3.08674 0
M  V30 58 H 8.63823 -0.431162 -1.8879 0
M  V30 59 H 7.50498 -1.26728 -2.96254 0
M  V30 60 H 7.76973 -1.7553 -0.18072 0
M  V30 61 H 6.03331 -4.06083 -0.0558242 0
M  V30 62 H 5.38306 -2.786 0.970285 0
M  V30 63 H 2.70256 -2.60979 0.860608 0
M  V30 64 H 3.32788 -1.73692 -0.535107 0
M  V30 65 H 1.29984 -4.07159 -0.686183 0
M  V30 66 H 1.78645 -3.05553 -2.04201 0
M  V30 67 H 0.704137 -1.00062 -2.37138 0
M  V30 68 H 1.96714 -0.586447 -1.23592 0
M  V30 69 H 0.15453 0.441026 0.266981 0
M  V30 70 H 0.510778 1.2428 -1.25694 0
M  V30 71 H -2.73058 0.235691 -2.70996 0
M  V30 72 H -1.04187 -0.235284 -3.08412 0
M  V30 73 H -1.49567 3.55747 -1.85919 0
M  V30 74 H -1.85454 1.06969 0.749011 0
M  V30 75 H -2.19777 -0.674329 0.395322 0
M  V30 76 H -4.14131 0.379712 1.77248 0
M  V30 77 H -6.35399 0.517788 -0.168398 0
M  V30 78 H -5.9424 2.13896 0.446616 0
M  V30 79 H -6.35756 1.57367 2.7129 0
M  V30 80 H -6.70845 -0.15251 2.29793 0
M  V30 81 H -8.72916 -0.627795 0.992356 0
M  V30 82 H -11.0837 0.0384317 0.500728 0
M  V30 83 H -10.2364 3.94764 1.77288 0
M  V30 84 H -7.89354 3.33375 2.26733 0
M  V30 85 H -13.2321 4.15183 -0.695902 0
M  V30 86 H -11.5513 3.80761 -0.918425 0
M  V30 87 H -1.4504 -2.24271 -1.28427 0
M  V30 88 H -0.245798 -3.35874 -2.09615 0
M  V30 89 H -0.202067 -3.21302 1.60019 0
M  V30 90 H 4.12956 -4.94638 1.2056 0
M  V30 91 H 2.69752 -5.25163 0.207691 0
M  V30 92 H 6.23865 -6.1958 -1.82148 0
M  V30 93 H 8.3029 2.56673 -1.77673 0
M  V30 94 H 8.29932 4.24447 0.109653 0
M  V30 END ATOM
M  V30 BEGIN BOND
M  V30 1 1 1 2
M  V30 2 2 2 3
M  V30 3 2 2 4
M  V30 4 1 2 5
M  V30 5 2 5 6
M  V30 6 1 6 7
M  V30 7 2 7 8
M  V30 8 1 8 9
M  V30 9 1 9 10
M  V30 10 1 10 11
M  V30 11 1 11 12
M  V30 12 2 12 13
M  V30 13 1 12 14
M  V30 14 1 14 15
M  V30 15 1 15 16
M  V30 16 1 16 17
M  V30 17 1 17 18
M  V30 18 1 18 19
M  V30 19 1 19 20
M  V30 20 1 20 21
M  V30 21 1 21 22
M  V30 22 1 22 23
M  V30 23 1 23 24
M  V30 24 2 23 25
M  V30 25 1 21 26
M  V30 26 1 26 27
M  V30 27 2 27 28
M  V30 28 1 27 29
M  V30 29 1 29 30
M  V30 30 1 30 31
M  V30 31 1 31 32
M  V30 32 2 32 33
M  V30 33 1 33 34
M  V30 34 2 34 35
M  V30 35 1 35 36
M  V30 36 2 36 37
M  V30 37 1 35 38
M  V30 38 1 38 39
M  V30 39 2 38 40
M  V30 40 2 38 41
M  V30 41 1 18 42
M  V30 42 1 42 43
M  V30 43 1 43 44
M  V30 44 2 43 45
M  V30 45 1 15 46
M  V30 46 1 46 47
M  V30 47 1 47 48
M  V30 48 2 47 49
M  V30 49 1 8 50
M  V30 50 2 50 51
M  V30 51 1 51 5
M  V30 52 1 37 32
M  V30 53 1 1 52
M  V30 54 1 1 53
M  V30 55 1 6 54
M  V30 56 1 7 55
M  V30 57 1 9 56
M  V30 58 1 9 57
M  V30 59 1 10 58
M  V30 60 1 10 59
M  V30 61 1 11 60
M  V30 62 1 14 61
M  V30 63 1 14 62
M  V30 64 1 16 63
M  V30 65 1 16 64
M  V30 66 1 17 65
M  V30 67 1 17 66
M  V30 68 1 19 67
M  V30 69 1 19 68
M  V30 70 1 20 69
M  V30 71 1 20 70
M  V30 72 1 22 71
M  V30 73 1 22 72
M  V30 74 1 24 73
M  V30 75 1 26 74
M  V30 76 1 26 75
M  V30 77 1 29 76
M  V30 78 1 30 77
M  V30 79 1 30 78
M  V30 80 1 31 79
M  V30 81 1 31 80
M  V30 82 1 33 81
M  V30 83 1 34 82
M  V30 84 1 36 83
M  V30 85 1 37 84
M  V30 86 1 39 85
M  V30 87 1 39 86
M  V30 88 1 42 87
M  V30 89 1 42 88
M  V30 90 1 44 89
M  V30 91 1 46 90
M  V30 92 1 46 91
M  V30 93 1 48 92
M  V30 94 1 50 93
M  V30 95 1 51 94
M  V30 END BOND
M  V30 END CTAB
M  END
