
     RDKit          3D

  0  0  0  0  0  0  0  0  0  0999 V3000
M  V30 BEGIN CTAB
M  V30 COUNTS 41 42 0 0 0
M  V30 BEGIN ATOM
M  V30 1 N -1.53612 2.07511 0.667917 0
M  V30 2 C -2.28108 0.913941 0.926441 0
M  V30 3 C -1.96685 -0.330493 0.144683 0
M  V30 4 C -2.13211 -0.160821 -1.32967 0
M  V30 5 C -3.4809 -0.673871 -1.75201 0
M  V30 6 C -4.19554 -1.0907 -0.484202 0
M  V30 7 C -3.12436 -1.30202 0.535886 0
M  V30 8 C -0.745948 -1.0261 0.549149 0
M  V30 9 O -0.892658 -2.01365 1.38781 0
M  V30 10 N 0.558072 -0.759614 0.150089 0
M  V30 11 C 0.975949 0.233116 -0.77185 0
M  V30 12 C 2.03407 1.07791 -0.027714 0
M  V30 13 N 3.19916 0.260187 0.0481749 0
M  V30 14 C 2.941 -1.1413 0.0249444 0
M  V30 15 C 1.68219 -1.56942 0.720661 0
M  V30 16 S 4.32204 0.75594 1.23238 0
M  V30 17 O 3.58685 0.820682 2.55786 0
M  V30 18 O 5.47139 -0.175474 1.34901 0
M  V30 19 N 4.85204 2.36493 0.806532 0
M  V30 20 H -1.35193 2.59996 1.55159 0
M  V30 21 H -2.03473 2.72184 0.0178146 0
M  V30 22 H -2.1586 0.640523 2.02047 0
M  V30 23 H -3.38766 1.11681 0.787218 0
M  V30 24 H -2.06051 0.916632 -1.62396 0
M  V30 25 H -1.39022 -0.719552 -1.94423 0
M  V30 26 H -3.42628 -1.51801 -2.48076 0
M  V30 27 H -4.05483 0.122577 -2.27569 0
M  V30 28 H -4.84946 -0.254729 -0.190617 0
M  V30 29 H -4.71919 -2.02738 -0.693072 0
M  V30 30 H -2.76032 -2.33627 0.559454 0
M  V30 31 H -3.49996 -1.06155 1.54901 0
M  V30 32 H 1.60133 -0.271011 -1.58631 0
M  V30 33 H 0.253727 0.855498 -1.26579 0
M  V30 34 H 2.16732 1.98468 -0.62552 0
M  V30 35 H 1.58926 1.28241 0.969186 0
M  V30 36 H 2.98714 -1.60204 -1.00557 0
M  V30 37 H 3.77665 -1.67181 0.56654 0
M  V30 38 H 1.50878 -2.63365 0.563861 0
M  V30 39 H 1.75916 -1.35173 1.80311 0
M  V30 40 H 5.68139 2.64382 1.36872 0
M  V30 41 H 5.10174 2.30463 -0.217176 0
M  V30 END ATOM
M  V30 BEGIN BOND
M  V30 1 1 1 2
M  V30 2 1 2 3
M  V30 3 1 3 4
M  V30 4 1 4 5
M  V30 5 1 5 6
M  V30 6 1 6 7
M  V30 7 1 3 8
M  V30 8 2 8 9
M  V30 9 1 8 10
M  V30 10 1 10 11
M  V30 11 1 11 12
M  V30 12 1 12 13
M  V30 13 1 13 14
M  V30 14 1 14 15
M  V30 15 1 13 16
M  V30 16 2 16 17
M  V30 17 2 16 18
M  V30 18 1 16 19
M  V30 19 1 7 3
M  V30 20 1 15 10
M  V30 21 1 1 20
M  V30 22 1 1 21
M  V30 23 1 2 22
M  V30 24 1 2 23
M  V30 25 1 4 24
M  V30 26 1 4 25
M  V30 27 1 5 26
M  V30 28 1 5 27
M  V30 29 1 6 28
M  V30 30 1 6 29
M  V30 31 1 7 30
M  V30 32 1 7 31
M  V30 33 1 11 32
M  V30 34 1 11 33
M  V30 35 1 12 34
M  V30 36 1 12 35
M  V30 37 1 14 36
M  V30 38 1 14 37
M  V30 39 1 15 38
M  V30 40 1 15 39
M  V30 41 1 19 40
M  V30 42 1 19 41
M  V30 END BOND
M  V30 END CTAB
M  END
