
     RDKit          3D

  0  0  0  0  0  0  0  0  0  0999 V3000
M  V30 BEGIN CTAB
M  V30 COUNTS 45 47 0 0 0
M  V30 BEGIN ATOM
M  V30 1 C -1.7623 -0.365135 -3.04318 0
M  V30 2 C -0.871399 -0.248398 -1.87968 0
M  V30 3 C -1.14805 0.0174418 -0.579546 0
M  V30 4 O 0.0114556 0.0693795 0.0604823 0
M  V30 5 C 1.02102 -0.151151 -0.76066 0
M  V30 6 C 0.537293 -0.365254 -2.01754 0
M  V30 7 C 1.2422 -0.696878 -3.27652 0
M  V30 8 C 2.41433 -0.149976 -0.30471 0
M  V30 9 C 2.66882 -0.102884 1.07548 0
M  V30 10 C 3.91684 -0.0662725 1.62025 0
M  V30 11 C 5.00942 -0.0752415 0.781349 0
M  V30 12 C 4.8091 -0.119849 -0.562319 0
M  V30 13 C 3.51497 -0.15666 -1.10343 0
M  V30 14 C 6.38443 -0.0379122 1.29844 0
M  V30 15 N 7.43521 -0.0520739 0.311131 0
M  V30 16 N 6.67658 0.00494013 2.53857 0
M  V30 17 C -2.43604 0.222718 0.0673257 0
M  V30 18 C -2.4447 0.709015 1.38553 0
M  V30 19 C -3.58641 0.907979 2.10499 0
M  V30 20 C -4.8241 0.635885 1.56416 0
M  V30 21 C -4.8232 0.159651 0.276048 0
M  V30 22 C -3.65066 -0.0470432 -0.467806 0
M  V30 23 C -6.04077 0.842417 2.31442 0
M  V30 24 N -7.2968 0.532582 1.67475 0
M  V30 25 N -6.09855 1.27729 3.49936 0
M  V30 26 H -2.32362 -1.3011 -3.12566 0
M  V30 27 H -2.5059 0.486641 -3.11581 0
M  V30 28 H -1.19488 -0.230492 -4.02083 0
M  V30 29 H 1.89457 -1.59083 -3.05239 0
M  V30 30 H 0.496331 -1.14678 -4.00425 0
M  V30 31 H 1.74774 0.126456 -3.76742 0
M  V30 32 H 1.82152 -0.0955247 1.76278 0
M  V30 33 H 4.06185 -0.0307953 2.70502 0
M  V30 34 H 5.63416 -0.128541 -1.25909 0
M  V30 35 H 3.43492 -0.17056 -2.16062 0
M  V30 36 H 8.14449 0.701583 0.364778 0
M  V30 37 H 7.515 -0.766141 -0.436542 0
M  V30 38 H 5.95818 0.0163333 3.26862 0
M  V30 39 H -1.49094 0.928511 1.82504 0
M  V30 40 H -3.55746 1.29119 3.13605 0
M  V30 41 H -5.7623 -0.0685804 -0.192977 0
M  V30 42 H -3.73364 -0.44451 -1.46322 0
M  V30 43 H -7.39975 -0.277029 1.03342 0
M  V30 44 H -8.11916 1.14239 1.8662 0
M  V30 45 H -5.27979 1.53237 4.06 0
M  V30 END ATOM
M  V30 BEGIN BOND
M  V30 1 1 1 2
M  V30 2 2 2 3
M  V30 3 1 3 4
M  V30 4 1 4 5
M  V30 5 2 5 6
M  V30 6 1 6 7
M  V30 7 1 5 8
M  V30 8 2 8 9
M  V30 9 1 9 10
M  V30 10 2 10 11
M  V30 11 1 11 12
M  V30 12 2 12 13
M  V30 13 1 11 14
M  V30 14 1 14 15
M  V30 15 2 14 16 CFG=2
M  V30 16 1 3 17
M  V30 17 2 17 18
M  V30 18 1 18 19
M  V30 19 2 19 20
M  V30 20 1 20 21
M  V30 21 2 21 22
M  V30 22 1 20 23
M  V30 23 1 23 24
M  V30 24 2 23 25 CFG=2
M  V30 25 1 6 2
M  V30 26 1 13 8
M  V30 27 1 22 17
M  V30 28 1 1 26
M  V30 29 1 1 27
M  V30 30 1 1 28
M  V30 31 1 7 29
M  V30 32 1 7 30
M  V30 33 1 7 31
M  V30 34 1 9 32
M  V30 35 1 10 33
M  V30 36 1 12 34
M  V30 37 1 13 35
M  V30 38 1 15 36
M  V30 39 1 15 37
M  V30 40 1 16 38
M  V30 41 1 18 39
M  V30 42 1 19 40
M  V30 43 1 21 41
M  V30 44 1 22 42
M  V30 45 1 24 43
M  V30 46 1 24 44
M  V30 47 1 25 45
M  V30 END BOND
M  V30 END CTAB
M  END
