
     RDKit          3D

  0  0  0  0  0  0  0  0  0  0999 V3000
M  V30 BEGIN CTAB
M  V30 COUNTS 26 26 0 0 0
M  V30 BEGIN ATOM
M  V30 1 N 4.78125 0.474472 0.187644 0
M  V30 2 C 3.70012 -0.424565 0.173073 0
M  V30 3 N 3.67707 -1.76397 0.254194 0
M  V30 4 O 2.44361 -2.15516 0.198427 0
M  V30 5 C 1.62302 -1.13165 0.0821452 0
M  V30 6 N 2.41944 -0.0489678 0.0669533 0
M  V30 7 C 0.141637 -1.15182 -0.0125721 0
M  V30 8 C -0.341667 0.251741 -0.13038 0
M  V30 9 C -1.84301 0.363248 -0.234527 0
M  V30 10 N -2.35802 -0.325005 -1.37499 0
M  V30 11 C -2.42227 -0.130558 1.07268 0
M  V30 12 C -2.15766 1.85832 -0.313493 0
M  V30 13 H 5.51093 0.409695 -0.536925 0
M  V30 14 H 4.84083 1.19475 0.921926 0
M  V30 15 H -0.0982269 -1.72337 -0.955482 0
M  V30 16 H -0.327938 -1.67793 0.841504 0
M  V30 17 H 0.129742 0.696144 -1.04674 0
M  V30 18 H 0.0458658 0.832045 0.731796 0
M  V30 19 H -2.19156 -1.33773 -1.26924 0
M  V30 20 H -3.37876 -0.150839 -1.45161 0
M  V30 21 H -1.75334 0.198157 1.90378 0
M  V30 22 H -3.42313 0.327655 1.18679 0
M  V30 23 H -2.47183 -1.23615 1.12994 0
M  V30 24 H -3.22189 2.05187 -0.434608 0
M  V30 25 H -1.80836 2.28527 0.661661 0
M  V30 26 H -1.51585 2.31435 -1.09807 0
M  V30 END ATOM
M  V30 BEGIN BOND
M  V30 1 1 1 2
M  V30 2 2 2 3
M  V30 3 1 3 4
M  V30 4 1 4 5
M  V30 5 2 5 6
M  V30 6 1 5 7
M  V30 7 1 7 8
M  V30 8 1 8 9
M  V30 9 1 9 10
M  V30 10 1 9 11
M  V30 11 1 9 12
M  V30 12 1 6 2
M  V30 13 1 1 13
M  V30 14 1 1 14
M  V30 15 1 7 15
M  V30 16 1 7 16
M  V30 17 1 8 17
M  V30 18 1 8 18
M  V30 19 1 10 19
M  V30 20 1 10 20
M  V30 21 1 11 21
M  V30 22 1 11 22
M  V30 23 1 11 23
M  V30 24 1 12 24
M  V30 25 1 12 25
M  V30 26 1 12 26
M  V30 END BOND
M  V30 END CTAB
M  END
