
     RDKit          3D

  0  0  0  0  0  0  0  0  0  0999 V3000
M  V30 BEGIN CTAB
M  V30 COUNTS 27 28 0 0 0
M  V30 BEGIN ATOM
M  V30 1 N -2.31259 1.89269 0.954973 0
M  V30 2 C -1.18656 1.01057 0.943785 0
M  V30 3 C -0.925516 0.631302 -0.471761 0 CFG=2
M  V30 4 C -2.17545 -0.0620045 -1.00384 0
M  V30 5 C -2.04527 -1.46534 -0.476661 0
M  V30 6 C -0.630838 -1.64783 -0.0150996 0
M  V30 7 C 0.0846566 -0.47414 -0.639585 0 CFG=2
M  V30 8 C 1.37989 -0.187903 -0.0409769 0
M  V30 9 O 1.6642 0.0967345 1.19984 0
M  V30 10 N 2.94354 0.292002 1.35369 0
M  V30 11 C 3.55107 0.132543 0.165389 0
M  V30 12 N 2.54977 -0.170053 -0.704118 0
M  V30 13 N 4.92269 0.23929 -0.18271 0
M  V30 14 H -3.21335 1.51307 1.05713 0
M  V30 15 H -2.14754 2.78796 0.550559 0
M  V30 16 H -0.352684 1.58157 1.40248 0
M  V30 17 H -1.46706 0.12673 1.5415 0
M  V30 18 H -0.633632 1.49858 -1.07948 0
M  V30 19 H -3.09451 0.441343 -0.674716 0
M  V30 20 H -2.07289 -0.0497054 -2.12214 0
M  V30 21 H -2.28686 -2.1525 -1.31252 0
M  V30 22 H -2.77215 -1.68912 0.328008 0
M  V30 23 H -0.536751 -1.65776 1.08776 0
M  V30 24 H -0.246484 -2.61581 -0.431959 0
M  V30 25 H 0.149216 -0.682937 -1.72788 0
M  V30 26 H 5.39026 1.18263 -0.0990566 0
M  V30 27 H 5.46482 -0.571921 -0.510682 0
M  V30 END ATOM
M  V30 BEGIN BOND
M  V30 1 1 1 2
M  V30 2 1 2 3
M  V30 3 1 3 4
M  V30 4 1 4 5
M  V30 5 1 5 6
M  V30 6 1 6 7
M  V30 7 1 7 8
M  V30 8 1 8 9
M  V30 9 1 9 10
M  V30 10 2 10 11
M  V30 11 1 11 12
M  V30 12 1 11 13
M  V30 13 1 7 3
M  V30 14 2 12 8
M  V30 15 1 1 14
M  V30 16 1 1 15
M  V30 17 1 2 16
M  V30 18 1 2 17
M  V30 19 1 3 18 CFG=3
M  V30 20 1 4 19
M  V30 21 1 4 20
M  V30 22 1 5 21
M  V30 23 1 5 22
M  V30 24 1 6 23
M  V30 25 1 6 24
M  V30 26 1 7 25 CFG=3
M  V30 27 1 13 26
M  V30 28 1 13 27
M  V30 END BOND
M  V30 END CTAB
M  END
