
     RDKit          3D

  0  0  0  0  0  0  0  0  0  0999 V3000
M  V30 BEGIN CTAB
M  V30 COUNTS 31 32 0 0 0
M  V30 BEGIN ATOM
M  V30 1 N -5.21634 0.602131 -0.668269 0
M  V30 2 C -3.97216 0.135283 -0.194786 0
M  V30 3 C -2.91153 0.0641443 -1.09361 0
M  V30 4 C -1.70834 -0.386182 -0.631941 0
M  V30 5 C -1.46311 -0.776297 0.660935 0
M  V30 6 C -2.53224 -0.702082 1.55642 0
M  V30 7 C -3.7418 -0.251518 1.1007 0
M  V30 8 S 0.0848794 -1.40325 1.09431 0
M  V30 9 O 0.197268 -1.46164 2.62252 0
M  V30 10 O 0.117398 -2.87112 0.686445 0
M  V30 11 C 1.46284 -0.626601 0.406906 0
M  V30 12 C 1.90799 0.609127 0.740227 0
M  V30 13 C 3.03557 1.18194 0.0779689 0
M  V30 14 C 3.70428 0.519911 -0.902305 0
M  V30 15 N 4.83409 1.07414 -1.57758 0
M  V30 16 C 3.25969 -0.734095 -1.24509 0
M  V30 17 C 2.17858 -1.30394 -0.623 0
M  V30 18 N 1.35396 1.37501 1.77664 0 CHG=1
M  V30 19 O 0.0833315 1.36482 2.15499 0 CHG=-1
M  V30 20 O 2.14036 2.14783 2.42008 0
M  V30 21 H -6.09183 0.0383803 -0.575367 0
M  V30 22 H -5.28636 1.53821 -1.12886 0
M  V30 23 H -3.01021 0.348836 -2.12589 0
M  V30 24 H -0.864468 -0.446329 -1.3319 0
M  V30 25 H -2.37632 -0.999243 2.57066 0
M  V30 26 H -4.61689 -0.175746 1.77311 0
M  V30 27 H 3.35221 2.1744 0.379487 0
M  V30 28 H 4.91627 0.891072 -2.59682 0
M  V30 29 H 5.55223 1.63302 -1.10417 0
M  V30 30 H 3.79626 -1.2707 -2.03328 0
M  V30 31 H 1.81438 -2.28951 -0.880022 0
M  V30 END ATOM
M  V30 BEGIN BOND
M  V30 1 1 1 2
M  V30 2 2 2 3
M  V30 3 1 3 4
M  V30 4 2 4 5
M  V30 5 1 5 6
M  V30 6 2 6 7
M  V30 7 1 5 8
M  V30 8 2 8 9
M  V30 9 2 8 10
M  V30 10 1 8 11
M  V30 11 2 11 12
M  V30 12 1 12 13
M  V30 13 2 13 14
M  V30 14 1 14 15
M  V30 15 1 14 16
M  V30 16 2 16 17
M  V30 17 1 12 18
M  V30 18 1 18 19
M  V30 19 2 18 20
M  V30 20 1 7 2
M  V30 21 1 17 11
M  V30 22 1 1 21
M  V30 23 1 1 22
M  V30 24 1 3 23
M  V30 25 1 4 24
M  V30 26 1 6 25
M  V30 27 1 7 26
M  V30 28 1 13 27
M  V30 29 1 15 28
M  V30 30 1 15 29
M  V30 31 1 16 30
M  V30 32 1 17 31
M  V30 END BOND
M  V30 END CTAB
M  END
