
     RDKit          3D

  0  0  0  0  0  0  0  0  0  0999 V3000
M  V30 BEGIN CTAB
M  V30 COUNTS 23 23 0 0 0
M  V30 BEGIN ATOM
M  V30 1 N 0.884179 1.87987 0.998243 0
M  V30 2 C 1.58626 0.759343 0.428521 0
M  V30 3 C 2.89593 0.905692 0.0199013 0
M  V30 4 C 3.56117 -0.184294 -0.528196 0
M  V30 5 C 2.94689 -1.41202 -0.675551 0
M  V30 6 C 1.62175 -1.53161 -0.253769 0
M  V30 7 C 0.950274 -0.457205 0.291923 0
M  V30 8 S -0.743096 -0.666424 0.814457 0
M  V30 9 C -1.84143 -0.278108 -0.576441 0
M  V30 10 C -3.28762 -0.432691 -0.208974 0
M  V30 11 N -3.69373 0.42245 0.871964 0
M  V30 12 F 3.62583 -2.45168 -1.21364 0
M  V30 13 H 0.891177 2.0629 2.02917 0
M  V30 14 H 0.355217 2.53231 0.403803 0
M  V30 15 H 3.38241 1.86797 0.133664 0
M  V30 16 H 4.59263 -0.0472293 -0.843622 0
M  V30 17 H 1.17754 -2.50764 -0.386128 0
M  V30 18 H -1.6138 -1.01483 -1.37557 0
M  V30 19 H -1.64172 0.736615 -0.943544 0
M  V30 20 H -3.51641 -1.49104 0.041467 0
M  V30 21 H -3.88451 -0.141559 -1.09972 0
M  V30 22 H -4.43078 0.0363388 1.47414 0
M  V30 23 H -3.81813 1.41284 0.597891 0
M  V30 END ATOM
M  V30 BEGIN BOND
M  V30 1 1 1 2
M  V30 2 2 2 3
M  V30 3 1 3 4
M  V30 4 2 4 5
M  V30 5 1 5 6
M  V30 6 2 6 7
M  V30 7 1 7 8
M  V30 8 1 8 9
M  V30 9 1 9 10
M  V30 10 1 10 11
M  V30 11 1 5 12
M  V30 12 1 7 2
M  V30 13 1 1 13
M  V30 14 1 1 14
M  V30 15 1 3 15
M  V30 16 1 4 16
M  V30 17 1 6 17
M  V30 18 1 9 18
M  V30 19 1 9 19
M  V30 20 1 10 20
M  V30 21 1 10 21
M  V30 22 1 11 22
M  V30 23 1 11 23
M  V30 END BOND
M  V30 END CTAB
M  END
