
     RDKit          3D

  0  0  0  0  0  0  0  0  0  0999 V3000
M  V30 BEGIN CTAB
M  V30 COUNTS 40 43 0 0 0
M  V30 BEGIN ATOM
M  V30 1 N -3.65214 -3.85402 -0.615821 0
M  V30 2 C -2.72923 -2.78254 -0.599224 0
M  V30 3 C -2.15603 -2.34768 0.578139 0
M  V30 4 C -1.25224 -1.30712 0.641299 0
M  V30 5 C -0.8897 -0.657929 -0.502726 0
M  V30 6 C -1.44311 -1.06659 -1.69654 0
M  V30 7 C -2.34656 -2.10747 -1.75685 0
M  V30 8 C 0.0883875 0.472771 -0.428451 0
M  V30 9 O 0.543274 0.787692 -1.71377 0
M  V30 10 C 0.358742 2.11183 -1.96382 0
M  V30 11 O 0.714881 2.76277 -3.00383 0
M  V30 12 C -0.330181 2.6943 -0.826352 0
M  V30 13 C -0.816224 3.97007 -0.544264 0
M  V30 14 C -1.50128 4.28326 0.609669 0
M  V30 15 C -1.71419 3.27834 1.52946 0
M  V30 16 C -1.23931 2.01451 1.26464 0
M  V30 17 C -0.541178 1.69544 0.0916296 0
M  V30 18 C 1.30264 0.0400217 0.326722 0
M  V30 19 C 1.60548 0.324854 1.60751 0
M  V30 20 C 2.77969 -0.149098 2.20132 0
M  V30 21 C 3.67332 -0.922229 1.51009 0
M  V30 22 N 4.87121 -1.42256 2.06948 0
M  V30 23 C 3.35845 -1.21073 0.199311 0
M  V30 24 C 2.20492 -0.749865 -0.396855 0
M  V30 25 H -3.33125 -4.79384 -0.323455 0
M  V30 26 H -4.6377 -3.73444 -0.909522 0
M  V30 27 H -2.46043 -2.88209 1.48388 0
M  V30 28 H -0.882015 -1.07514 1.62834 0
M  V30 29 H -1.16809 -0.566465 -2.60592 0
M  V30 30 H -2.8007 -2.45508 -2.67365 0
M  V30 31 H -0.610374 4.71771 -1.3188 0
M  V30 32 H -1.86114 5.27688 0.793996 0
M  V30 33 H -2.25162 3.45958 2.46669 0
M  V30 34 H -1.41688 1.2177 2.00033 0
M  V30 35 H 0.931888 0.93118 2.18933 0
M  V30 36 H 2.98366 0.0985092 3.21949 0
M  V30 37 H 5.63261 -0.79015 2.36924 0
M  V30 38 H 4.98253 -2.44659 2.17908 0
M  V30 39 H 4.01082 -1.82017 -0.430818 0
M  V30 40 H 1.98907 -0.995597 -1.42816 0
M  V30 END ATOM
M  V30 BEGIN BOND
M  V30 1 1 1 2
M  V30 2 2 2 3
M  V30 3 1 3 4
M  V30 4 2 4 5
M  V30 5 1 5 6
M  V30 6 2 6 7
M  V30 7 1 5 8
M  V30 8 1 8 9
M  V30 9 1 9 10
M  V30 10 2 10 11
M  V30 11 1 10 12
M  V30 12 2 12 13
M  V30 13 1 13 14
M  V30 14 2 14 15
M  V30 15 1 15 16
M  V30 16 2 16 17
M  V30 17 1 8 18
M  V30 18 2 18 19
M  V30 19 1 19 20
M  V30 20 2 20 21
M  V30 21 1 21 22
M  V30 22 1 21 23
M  V30 23 2 23 24
M  V30 24 1 7 2
M  V30 25 1 17 8
M  V30 26 1 24 18
M  V30 27 1 17 12
M  V30 28 1 1 25
M  V30 29 1 1 26
M  V30 30 1 3 27
M  V30 31 1 4 28
M  V30 32 1 6 29
M  V30 33 1 7 30
M  V30 34 1 13 31
M  V30 35 1 14 32
M  V30 36 1 15 33
M  V30 37 1 16 34
M  V30 38 1 19 35
M  V30 39 1 20 36
M  V30 40 1 22 37
M  V30 41 1 22 38
M  V30 42 1 23 39
M  V30 43 1 24 40
M  V30 END BOND
M  V30 END CTAB
M  END
