
     RDKit          3D

  0  0  0  0  0  0  0  0  0  0999 V3000
M  V30 BEGIN CTAB
M  V30 COUNTS 39 41 0 0 0
M  V30 BEGIN ATOM
M  V30 1 N -2.9093 -0.582576 2.78875 0
M  V30 2 C -2.7525 -0.2924 1.68076 0
M  V30 3 C -2.54395 0.0511992 0.277747 0
M  V30 4 C -3.42756 0.889863 -0.219558 0
M  V30 5 N -4.49781 1.42863 0.516826 0
M  V30 6 S -3.20991 1.34025 -1.93359 0
M  V30 7 C -2.1714 0.0940307 -2.66583 0
M  V30 8 C -1.45493 -0.643327 -1.84218 0
M  V30 9 C -1.40934 -0.561232 -0.389731 0
M  V30 10 C -0.136828 0.0369142 0.147954 0
M  V30 11 C -0.0470353 1.42149 0.289677 0
M  V30 12 C 1.11789 2.0225 0.78174 0
M  V30 13 O 1.46464 3.34723 1.01703 0
M  V30 14 C 2.85135 3.37928 1.24981 0
M  V30 15 O 3.22792 2.06564 1.59187 0
M  V30 16 C 2.20171 1.24723 1.13611 0
M  V30 17 C 2.09705 -0.128628 0.989554 0
M  V30 18 C 0.953356 -0.728688 0.505757 0
M  V30 19 O 0.909256 -2.08861 0.384517 0
M  V30 20 C 0.489273 -3.00555 1.33782 0
M  V30 21 O 3.16138 -0.922316 1.33508 0
M  V30 22 C 4.18677 -1.2916 0.441351 0
M  V30 23 C -0.618782 -1.65501 -2.48252 0
M  V30 24 N 0.0383279 -2.46985 -3.01269 0
M  V30 25 N -2.11847 -0.0970521 -4.08888 0
M  V30 26 H -5.40459 0.93017 0.519339 0
M  V30 27 H -4.38153 2.30871 1.04758 0
M  V30 28 H -1.36672 -1.63391 -0.0204753 0
M  V30 29 H -0.83192 2.09209 0.0427233 0
M  V30 30 H 3.38557 3.74698 0.330552 0
M  V30 31 H 3.04885 4.07427 2.08987 0
M  V30 32 H -0.0423094 -2.49971 2.16879 0
M  V30 33 H -0.254418 -3.69028 0.847614 0
M  V30 34 H 1.31182 -3.66282 1.69006 0
M  V30 35 H 4.9019 -1.91281 1.00635 0
M  V30 36 H 3.77861 -1.87457 -0.412483 0
M  V30 37 H 4.69998 -0.401857 0.0169191 0
M  V30 38 H -3.02563 -0.302859 -4.55923 0
M  V30 39 H -1.22074 -0.0308104 -4.605 0
M  V30 END ATOM
M  V30 BEGIN BOND
M  V30 1 3 1 2
M  V30 2 1 2 3
M  V30 3 2 3 4
M  V30 4 1 4 5
M  V30 5 1 4 6
M  V30 6 1 6 7
M  V30 7 2 7 8
M  V30 8 1 8 9
M  V30 9 1 9 10
M  V30 10 2 10 11
M  V30 11 1 11 12
M  V30 12 1 12 13
M  V30 13 1 13 14
M  V30 14 1 14 15
M  V30 15 1 15 16
M  V30 16 1 16 17
M  V30 17 2 17 18
M  V30 18 1 18 19
M  V30 19 1 19 20
M  V30 20 1 17 21
M  V30 21 1 21 22
M  V30 22 1 8 23
M  V30 23 3 23 24
M  V30 24 1 7 25
M  V30 25 1 9 3
M  V30 26 1 18 10
M  V30 27 2 16 12
M  V30 28 1 5 26
M  V30 29 1 5 27
M  V30 30 1 9 28
M  V30 31 1 11 29
M  V30 32 1 14 30
M  V30 33 1 14 31
M  V30 34 1 20 32
M  V30 35 1 20 33
M  V30 36 1 20 34
M  V30 37 1 22 35
M  V30 38 1 22 36
M  V30 39 1 22 37
M  V30 40 1 25 38
M  V30 41 1 25 39
M  V30 END BOND
M  V30 END CTAB
M  END
