
     RDKit          3D

  0  0  0  0  0  0  0  0  0  0999 V3000
M  V30 BEGIN CTAB
M  V30 COUNTS 37 38 0 0 0
M  V30 BEGIN ATOM
M  V30 1 O -0.550846 0.285724 -1.10085 0
M  V30 2 C -0.385152 -0.934548 -1.16105 0
M  V30 3 N 0.913037 -1.48256 -1.01908 0
M  V30 4 C 2.10814 -0.74934 -0.814036 0
M  V30 5 C 2.2927 0.565415 -1.13518 0
M  V30 6 C 3.48194 1.23509 -0.836405 0
M  V30 7 C 4.50033 0.598067 -0.215178 0
M  V30 8 C 4.36237 -0.721745 0.122354 0
M  V30 9 C 3.18181 -1.38137 -0.174628 0
M  V30 10 S 5.97373 1.42786 0.19517 0
M  V30 11 O 7.14863 0.539026 0.33714 0
M  V30 12 O 6.29241 2.51355 -0.808015 0
M  V30 13 N 5.67977 2.1754 1.75546 0
M  V30 14 C -1.53387 -1.84556 -1.3833 0
M  V30 15 S -2.70252 -1.99629 -0.132516 0
M  V30 16 C -3.84997 -0.831199 0.374398 0
M  V30 17 C -4.39535 -1.03716 1.66764 0
M  V30 18 C -5.33251 -0.239136 2.23332 0
M  V30 19 C -5.78547 0.837849 1.51384 0
M  V30 20 C -5.27982 1.05993 0.267697 0
M  V30 21 C -4.30708 0.242431 -0.336913 0
M  V30 22 N -3.91242 0.552978 -1.66136 0
M  V30 23 H 1.03949 -2.54949 -1.07462 0
M  V30 24 H 1.51005 1.10081 -1.64972 0
M  V30 25 H 3.57435 2.27249 -1.11255 0
M  V30 26 H 5.18962 -1.20927 0.609894 0
M  V30 27 H 3.10045 -2.43362 0.101491 0
M  V30 28 H 4.77916 2.71983 1.62424 0
M  V30 29 H 5.41232 1.38081 2.39576 0
M  V30 30 H -1.07664 -2.9151 -1.51892 0
M  V30 31 H -1.86487 -1.67556 -2.44464 0
M  V30 32 H -4.06269 -1.88482 2.27247 0
M  V30 33 H -5.74827 -0.4138 3.23911 0
M  V30 34 H -6.53252 1.47139 1.97664 0
M  V30 35 H -5.63122 1.92604 -0.318378 0
M  V30 36 H -4.41577 1.30995 -2.1913 0
M  V30 37 H -3.17332 0.0859188 -2.14652 0
M  V30 END ATOM
M  V30 BEGIN BOND
M  V30 1 2 1 2
M  V30 2 1 2 3
M  V30 3 1 3 4
M  V30 4 2 4 5
M  V30 5 1 5 6
M  V30 6 2 6 7
M  V30 7 1 7 8
M  V30 8 2 8 9
M  V30 9 1 7 10
M  V30 10 2 10 11
M  V30 11 2 10 12
M  V30 12 1 10 13
M  V30 13 1 2 14
M  V30 14 1 14 15
M  V30 15 1 15 16
M  V30 16 2 16 17
M  V30 17 1 17 18
M  V30 18 2 18 19
M  V30 19 1 19 20
M  V30 20 2 20 21
M  V30 21 1 21 22
M  V30 22 1 9 4
M  V30 23 1 21 16
M  V30 24 1 3 23
M  V30 25 1 5 24
M  V30 26 1 6 25
M  V30 27 1 8 26
M  V30 28 1 9 27
M  V30 29 1 13 28
M  V30 30 1 13 29
M  V30 31 1 14 30
M  V30 32 1 14 31
M  V30 33 1 17 32
M  V30 34 1 18 33
M  V30 35 1 19 34
M  V30 36 1 20 35
M  V30 37 1 22 36
M  V30 38 1 22 37
M  V30 END BOND
M  V30 END CTAB
M  END
