
     RDKit          3D

  0  0  0  0  0  0  0  0  0  0999 V3000
M  V30 BEGIN CTAB
M  V30 COUNTS 24 25 0 0 0
M  V30 BEGIN ATOM
M  V30 1 N -2.69658 -1.55962 1.91588 0
M  V30 2 C -2.08696 -0.693095 0.971136 0
M  V30 3 C -2.85132 0.168867 0.216274 0
M  V30 4 C -2.30313 1.0367 -0.721444 0
M  V30 5 N -3.10023 1.90582 -1.47901 0
M  V30 6 C -0.93015 1.03883 -0.908718 0
M  V30 7 C -0.148285 0.19184 -0.17112 0
M  V30 8 C -0.714385 -0.652677 0.745802 0
M  V30 9 C 1.29142 0.214 -0.387266 0
M  V30 10 O 1.97093 0.959111 -1.22043 0
M  V30 11 N 3.23533 0.724388 -1.15728 0
M  V30 12 C 3.44218 -0.219058 -0.24622 0
M  V30 13 N 2.2337 -0.547958 0.244025 0
M  V30 14 C 4.74006 -0.838453 0.195262 0
M  V30 15 H -2.67139 -2.59566 1.80185 0
M  V30 16 H -3.18555 -1.17102 2.74947 0
M  V30 17 H -3.93778 0.176629 0.355067 0
M  V30 18 H -3.32637 1.67756 -2.46179 0
M  V30 19 H -3.47209 2.78146 -1.07217 0
M  V30 20 H -0.486516 1.72779 -1.65431 0
M  V30 21 H -0.118171 -1.33281 1.34235 0
M  V30 22 H 4.54275 -1.58514 0.990736 0
M  V30 23 H 5.36717 -0.0222662 0.592534 0
M  V30 24 H 5.20538 -1.38522 -0.640639 0
M  V30 END ATOM
M  V30 BEGIN BOND
M  V30 1 1 1 2
M  V30 2 2 2 3
M  V30 3 1 3 4
M  V30 4 1 4 5
M  V30 5 2 4 6
M  V30 6 1 6 7
M  V30 7 2 7 8
M  V30 8 1 7 9
M  V30 9 1 9 10
M  V30 10 1 10 11
M  V30 11 2 11 12
M  V30 12 1 12 13
M  V30 13 1 12 14
M  V30 14 1 8 2
M  V30 15 2 13 9
M  V30 16 1 1 15
M  V30 17 1 1 16
M  V30 18 1 3 17
M  V30 19 1 5 18
M  V30 20 1 5 19
M  V30 21 1 6 20
M  V30 22 1 8 21
M  V30 23 1 14 22
M  V30 24 1 14 23
M  V30 25 1 14 24
M  V30 END BOND
M  V30 END CTAB
M  END
