
     RDKit          3D

  0  0  0  0  0  0  0  0  0  0999 V3000
M  V30 BEGIN CTAB
M  V30 COUNTS 39 41 0 0 0
M  V30 BEGIN ATOM
M  V30 1 N 7.69356 -0.234527 0.581148 0
M  V30 2 C 7.35265 0.989563 -0.062438 0
M  V30 3 N 6.10374 1.2959 -0.312087 0
M  V30 4 C 5.07332 0.38519 0.068972 0
M  V30 5 S 5.17076 -1.12837 0.840123 0
M  V30 6 C 3.49195 -1.48904 0.894295 0
M  V30 7 C 2.95695 -0.37658 0.292223 0
M  V30 8 N 3.78233 0.5408 -0.10784 0
M  V30 9 C 1.48754 -0.232472 0.107627 0
M  V30 10 C 0.620417 -1.1988 0.529258 0
M  V30 11 C -0.752689 -1.10788 0.379419 0
M  V30 12 C -1.31655 -0.0213866 -0.210454 0
M  V30 13 C -0.429442 0.977997 -0.647681 0
M  V30 14 C 0.926725 0.871854 -0.491809 0
M  V30 15 N -2.69503 0.199945 -0.400651 0
M  V30 16 C -3.73306 -0.470485 0.253447 0
M  V30 17 O -3.51417 -1.35782 1.10623 0
M  V30 18 C -5.15013 -0.173022 -0.0208825 0
M  V30 19 C -6.09945 -0.68451 0.820545 0
M  V30 20 C -7.45157 -0.450171 0.623341 0
M  V30 21 C -7.88284 0.309251 -0.431966 0
M  V30 22 C -6.93328 0.825586 -1.28052 0
M  V30 23 C -5.57914 0.585503 -1.07531 0
M  V30 24 N 8.3912 1.87708 -0.431155 0
M  V30 25 H 7.82744 -1.10199 0.0119267 0
M  V30 26 H 7.81888 -0.317962 1.59671 0
M  V30 27 H 2.98068 -2.37958 1.30473 0
M  V30 28 H 1.02342 -2.1022 1.01534 0
M  V30 29 H -1.3623 -1.92906 0.731594 0
M  V30 30 H -0.865517 1.86076 -1.12503 0
M  V30 31 H 1.58549 1.65618 -0.837794 0
M  V30 32 H -2.98352 0.938306 -1.1018 0
M  V30 33 H -5.80465 -1.30197 1.68536 0
M  V30 34 H -8.18374 -0.866095 1.30335 0
M  V30 35 H -8.94016 0.492914 -0.5867 0
M  V30 36 H -7.27267 1.43038 -2.12137 0
M  V30 37 H -4.85627 1.00197 -1.75949 0
M  V30 38 H 8.48838 2.14648 -1.42165 0
M  V30 39 H 9.03073 2.24053 0.280994 0
M  V30 END ATOM
M  V30 BEGIN BOND
M  V30 1 1 1 2
M  V30 2 2 2 3 CFG=2
M  V30 3 1 3 4
M  V30 4 1 4 5
M  V30 5 1 5 6
M  V30 6 2 6 7
M  V30 7 1 7 8
M  V30 8 1 7 9
M  V30 9 2 9 10
M  V30 10 1 10 11
M  V30 11 2 11 12
M  V30 12 1 12 13
M  V30 13 2 13 14
M  V30 14 1 12 15
M  V30 15 1 15 16
M  V30 16 2 16 17
M  V30 17 1 16 18
M  V30 18 2 18 19
M  V30 19 1 19 20
M  V30 20 2 20 21
M  V30 21 1 21 22
M  V30 22 2 22 23
M  V30 23 1 2 24
M  V30 24 2 8 4
M  V30 25 1 14 9
M  V30 26 1 23 18
M  V30 27 1 1 25
M  V30 28 1 1 26
M  V30 29 1 6 27
M  V30 30 1 10 28
M  V30 31 1 11 29
M  V30 32 1 13 30
M  V30 33 1 14 31
M  V30 34 1 15 32
M  V30 35 1 19 33
M  V30 36 1 20 34
M  V30 37 1 21 35
M  V30 38 1 22 36
M  V30 39 1 23 37
M  V30 40 1 24 38
M  V30 41 1 24 39
M  V30 END BOND
M  V30 END CTAB
M  END
