
     RDKit          3D

  0  0  0  0  0  0  0  0  0  0999 V3000
M  V30 BEGIN CTAB
M  V30 COUNTS 41 43 0 0 0
M  V30 BEGIN ATOM
M  V30 1 N -4.19455 0.296464 -2.68749 0
M  V30 2 C -4.57593 0.304844 -1.32482 0
M  V30 3 N -4.13025 -0.624533 -0.444058 0
M  V30 4 C -4.47827 -0.636636 0.8526 0
M  V30 5 C -3.96553 -1.67456 1.78167 0
M  V30 6 O -2.8189 -2.29671 1.27804 0
M  V30 7 C -1.61321 -1.68512 0.999044 0
M  V30 8 C -0.562352 -2.41836 0.489748 0
M  V30 9 C 0.682207 -1.86959 0.185918 0
M  V30 10 C 0.911664 -0.546877 0.388441 0
M  V30 11 C -0.144989 0.200336 0.902616 0
M  V30 12 C -1.37051 -0.345933 1.20048 0
M  V30 13 N 2.14868 0.0711006 0.121341 0
M  V30 14 C 3.3838 -0.53378 -0.125004 0
M  V30 15 O 3.57125 -1.75771 -0.138628 0
M  V30 16 C 4.55374 0.314638 -0.388172 0
M  V30 17 C 4.54509 1.67734 -0.415019 0
M  V30 18 N 5.81548 2.05285 -0.689295 0
M  V30 19 N 6.57796 0.970817 -0.826412 0
M  V30 20 C 5.81846 -0.138886 -0.643821 0
M  V30 21 C 8.00065 0.910902 -1.12346 0
M  V30 22 N -5.30924 0.317843 1.30381 0
M  V30 23 C -5.78775 1.27395 0.470436 0
M  V30 24 N -5.40433 1.23724 -0.82351 0
M  V30 25 N -6.66385 2.29113 0.916987 0
M  V30 26 H -4.87719 0.606679 -3.39903 0
M  V30 27 H -3.25795 -0.0108477 -2.97387 0
M  V30 28 H -3.79928 -1.25922 2.7978 0
M  V30 29 H -4.76643 -2.47024 1.80523 0
M  V30 30 H -0.715523 -3.47438 0.318346 0
M  V30 31 H 1.44478 -2.54569 -0.225666 0
M  V30 32 H 0.0350839 1.25305 1.06539 0
M  V30 33 H -2.12706 0.314594 1.60447 0
M  V30 34 H 2.11541 1.14261 0.105631 0
M  V30 35 H 3.71378 2.37313 -0.255345 0
M  V30 36 H 6.17326 -1.16137 -0.696709 0
M  V30 37 H 8.49624 1.87892 -0.998754 0
M  V30 38 H 8.10053 0.491771 -2.1482 0
M  V30 39 H 8.44816 0.152468 -0.441879 0
M  V30 40 H -6.76964 3.17185 0.383801 0
M  V30 41 H -7.20348 2.14592 1.78988 0
M  V30 END ATOM
M  V30 BEGIN BOND
M  V30 1 1 1 2
M  V30 2 2 2 3
M  V30 3 1 3 4
M  V30 4 1 4 5
M  V30 5 1 5 6
M  V30 6 1 6 7
M  V30 7 2 7 8
M  V30 8 1 8 9
M  V30 9 2 9 10
M  V30 10 1 10 11
M  V30 11 2 11 12
M  V30 12 1 10 13
M  V30 13 1 13 14
M  V30 14 2 14 15
M  V30 15 1 14 16
M  V30 16 1 16 17
M  V30 17 2 17 18
M  V30 18 1 18 19
M  V30 19 1 19 20
M  V30 20 1 19 21
M  V30 21 2 4 22
M  V30 22 1 22 23
M  V30 23 2 23 24
M  V30 24 1 23 25
M  V30 25 1 24 2
M  V30 26 1 12 7
M  V30 27 2 20 16
M  V30 28 1 1 26
M  V30 29 1 1 27
M  V30 30 1 5 28
M  V30 31 1 5 29
M  V30 32 1 8 30
M  V30 33 1 9 31
M  V30 34 1 11 32
M  V30 35 1 12 33
M  V30 36 1 13 34
M  V30 37 1 17 35
M  V30 38 1 20 36
M  V30 39 1 21 37
M  V30 40 1 21 38
M  V30 41 1 21 39
M  V30 42 1 25 40
M  V30 43 1 25 41
M  V30 END BOND
M  V30 END CTAB
M  END
