
     RDKit          3D

  0  0  0  0  0  0  0  0  0  0999 V3000
M  V30 BEGIN CTAB
M  V30 COUNTS 44 47 0 0 0
M  V30 BEGIN ATOM
M  V30 1 N 6.82063 1.47406 -0.739885 0
M  V30 2 C 5.59699 0.836251 -0.323564 0
M  V30 3 N 4.69928 0.411753 -1.23309 0
M  V30 4 C 3.54643 -0.186867 -0.880057 0
M  V30 5 C 2.54542 -0.660954 -1.87001 0
M  V30 6 S 1.32663 0.617078 -2.27277 0
M  V30 7 C 0.296863 1.02626 -0.888732 0
M  V30 8 N 0.581655 1.96492 -0.00465452 0
M  V30 9 C -0.402144 2.00468 0.889301 0
M  V30 10 C -1.37656 1.03852 0.565802 0
M  V30 11 N -0.911208 0.458027 -0.533036 0
M  V30 12 C -1.45657 -0.588329 -1.34145 0
M  V30 13 C -2.34374 -0.281261 -2.3819 0
M  V30 14 C -2.80908 -1.30045 -3.17439 0
M  V30 15 C -2.44836 -2.60432 -2.99781 0
M  V30 16 C -1.57581 -2.90354 -1.97389 0
M  V30 17 C -1.09741 -1.90781 -1.17009 0
M  V30 18 C -2.59723 0.83177 1.33294 0
M  V30 19 C -2.8899 1.66141 2.40592 0
M  V30 20 C -3.99311 1.54204 3.18804 0
M  V30 21 C -4.88234 0.538427 2.90652 0
M  V30 22 C -4.66357 -0.312324 1.87285 0
M  V30 23 C -3.50005 -0.154254 1.08086 0
M  V30 24 N 3.31885 -0.349117 0.435938 0
M  V30 25 C 4.18947 0.0605266 1.37798 0
M  V30 26 N 5.32927 0.65413 0.981432 0
M  V30 27 N 3.83834 -0.166105 2.72343 0
M  V30 28 H 7.04817 1.58909 -1.73925 0
M  V30 29 H 7.46936 1.81597 0.000739058 0
M  V30 30 H 2.01363 -1.51765 -1.43259 0
M  V30 31 H 3.02972 -1.01232 -2.79581 0
M  V30 32 H -0.5009 2.64891 1.75249 0
M  V30 33 H -2.62608 0.755327 -2.51618 0
M  V30 34 H -3.49543 -1.02811 -3.9724 0
M  V30 35 H -2.81425 -3.42821 -3.62622 0
M  V30 36 H -1.27793 -3.94009 -1.81912 0
M  V30 37 H -0.416203 -2.14488 -0.37167 0
M  V30 38 H -2.2059 2.45301 2.6386 0
M  V30 39 H -4.22189 2.17627 4.01153 0
M  V30 40 H -5.77326 0.417463 3.51242 0
M  V30 41 H -5.35975 -1.10535 1.64376 0
M  V30 42 H -3.43251 -0.87835 0.31168 0
M  V30 43 H 3.63369 -1.12569 3.04117 0
M  V30 44 H 3.78679 0.620103 3.38516 0
M  V30 END ATOM
M  V30 BEGIN BOND
M  V30 1 1 1 2
M  V30 2 2 2 3
M  V30 3 1 3 4
M  V30 4 1 4 5
M  V30 5 1 5 6
M  V30 6 1 6 7
M  V30 7 2 7 8
M  V30 8 1 8 9
M  V30 9 2 9 10
M  V30 10 1 10 11
M  V30 11 1 11 12
M  V30 12 2 12 13
M  V30 13 1 13 14
M  V30 14 2 14 15
M  V30 15 1 15 16
M  V30 16 2 16 17
M  V30 17 1 10 18
M  V30 18 2 18 19
M  V30 19 1 19 20
M  V30 20 2 20 21
M  V30 21 1 21 22
M  V30 22 2 22 23
M  V30 23 2 4 24
M  V30 24 1 24 25
M  V30 25 2 25 26
M  V30 26 1 25 27
M  V30 27 1 26 2
M  V30 28 1 11 7
M  V30 29 1 17 12
M  V30 30 1 23 18
M  V30 31 1 1 28
M  V30 32 1 1 29
M  V30 33 1 5 30
M  V30 34 1 5 31
M  V30 35 1 9 32
M  V30 36 1 13 33
M  V30 37 1 14 34
M  V30 38 1 15 35
M  V30 39 1 16 36
M  V30 40 1 17 37
M  V30 41 1 19 38
M  V30 42 1 20 39
M  V30 43 1 21 40
M  V30 44 1 22 41
M  V30 45 1 23 42
M  V30 46 1 27 43
M  V30 47 1 27 44
M  V30 END BOND
M  V30 END CTAB
M  END
