
     RDKit          3D

  0  0  0  0  0  0  0  0  0  0999 V3000
M  V30 BEGIN CTAB
M  V30 COUNTS 84 85 0 0 0
M  V30 BEGIN ATOM
M  V30 1 C -7.26745 -0.313158 1.10677 0
M  V30 2 N -6.20862 0.0475486 0.255378 0
M  V30 3 C -5.64476 -1.01789 -0.480613 0
M  V30 4 C -5.96105 -0.977157 -1.95994 0
M  V30 5 C -6.12153 -2.35201 0.0509532 0
M  V30 6 C -4.10127 -1.05139 -0.363302 0
M  V30 7 C -3.80258 -0.58907 1.01425 0
M  V30 8 C -2.61704 -1.08323 1.70376 0
M  V30 9 C -1.25686 -0.88209 1.19759 0
M  V30 10 C -0.895591 -1.45539 -0.114822 0
M  V30 11 C 0.601034 -1.1831 -0.471354 0
M  V30 12 C 0.90963 0.238975 -0.553824 0
M  V30 13 C 2.21707 0.701526 -1.00393 0
M  V30 14 C 3.51884 0.435261 -0.422972 0
M  V30 15 C 4.51037 1.35857 -1.30135 0
M  V30 16 C 5.84716 1.38801 -0.684621 0
M  V30 17 C 6.96473 1.10938 -1.69443 0
M  V30 18 C 6.10371 2.82913 -0.216006 0
M  V30 19 N 6.055 0.541948 0.423327 0
M  V30 20 C 6.30779 1.1607 1.67585 0
M  V30 21 C 5.44897 -0.725334 0.423798 0
M  V30 22 C 6.40423 -1.84352 0.037331 0
M  V30 23 C 4.90734 -1.07804 1.80334 0
M  V30 24 C 4.23934 -0.851812 -0.534336 0
M  V30 25 N 3.63181 -2.08832 -0.291801 0
M  V30 26 C -4.02884 0.907263 1.07077 0
M  V30 27 N -3.11546 1.67485 0.306979 0
M  V30 28 C -5.4314 1.16595 0.552476 0
M  V30 29 C -5.3893 2.07427 -0.68636 0
M  V30 30 C -6.11269 2.03391 1.62059 0
M  V30 31 H -7.06377 -1.19545 1.77569 0
M  V30 32 H -8.12746 -0.66742 0.463989 0
M  V30 33 H -7.66647 0.468603 1.74138 0
M  V30 34 H -6.46991 -1.91747 -2.30443 0
M  V30 35 H -5.04991 -0.890244 -2.58727 0
M  V30 36 H -6.66427 -0.156994 -2.21774 0
M  V30 37 H -5.70667 -3.12522 -0.660757 0
M  V30 38 H -5.72034 -2.61126 1.03437 0
M  V30 39 H -7.2213 -2.46089 -0.0243012 0
M  V30 40 H -3.70654 -2.07214 -0.504052 0
M  V30 41 H -3.67543 -0.421526 -1.17515 0
M  V30 42 H -4.67911 -0.974137 1.65392 0
M  V30 43 H -2.75349 -2.205 1.84621 0
M  V30 44 H -2.65341 -0.706043 2.75949 0
M  V30 45 H -0.918846 0.180559 1.21287 0
M  V30 46 H -0.564704 -1.3688 1.95443 0
M  V30 47 H -1.47174 -1.03731 -0.941964 0
M  V30 48 H -0.942455 -2.5735 -0.0759052 0
M  V30 49 H 1.08645 -1.57924 0.486268 0
M  V30 50 H 0.855577 -1.81281 -1.3027 0
M  V30 51 H 0.0643767 0.822273 -1.0938 0
M  V30 52 H 0.782423 0.735712 0.499417 0
M  V30 53 H 2.26853 0.577571 -2.17182 0
M  V30 54 H 2.13709 1.87416 -1.00974 0
M  V30 55 H 3.61637 0.939734 0.568757 0
M  V30 56 H 4.00235 2.3167 -1.4641 0
M  V30 57 H 4.53739 0.8052 -2.25108 0
M  V30 58 H 7.80982 1.7873 -1.58299 0
M  V30 59 H 6.52604 1.2193 -2.72562 0
M  V30 60 H 7.294 0.0570356 -1.63095 0
M  V30 61 H 5.4704 3.10669 0.628549 0
M  V30 62 H 7.16963 3.04016 -0.101366 0
M  V30 63 H 5.75907 3.46213 -1.08611 0
M  V30 64 H 6.69644 0.368825 2.37771 0
M  V30 65 H 5.46334 1.70233 2.11273 0
M  V30 66 H 7.17331 1.872 1.57082 0
M  V30 67 H 6.28899 -2.73467 0.709673 0
M  V30 68 H 7.46814 -1.51142 0.191483 0
M  V30 69 H 6.21598 -2.17008 -0.992163 0
M  V30 70 H 3.94626 -1.61387 1.75842 0
M  V30 71 H 4.73171 -0.17886 2.42809 0
M  V30 72 H 5.61694 -1.75324 2.35607 0
M  V30 73 H 4.67778 -0.914551 -1.58939 0
M  V30 74 H 3.33131 -2.56803 -1.19417 0
M  V30 75 H 4.33077 -2.75825 0.116684 0
M  V30 76 H -3.91003 1.19314 2.14253 0
M  V30 77 H -2.32016 2.0851 0.802573 0
M  V30 78 H -2.98853 1.42924 -0.673875 0
M  V30 79 H -4.91619 1.59849 -1.54024 0
M  V30 80 H -4.79371 2.95928 -0.38607 0
M  V30 81 H -6.43327 2.34548 -0.907429 0
M  V30 82 H -7.06718 2.43465 1.28288 0
M  V30 83 H -6.13571 1.5136 2.59274 0
M  V30 84 H -5.41246 2.90736 1.7735 0
M  V30 END ATOM
M  V30 BEGIN BOND
M  V30 1 1 1 2
M  V30 2 1 2 3
M  V30 3 1 3 4
M  V30 4 1 3 5
M  V30 5 1 3 6
M  V30 6 1 6 7
M  V30 7 1 7 8
M  V30 8 1 8 9
M  V30 9 1 9 10
M  V30 10 1 10 11
M  V30 11 1 11 12
M  V30 12 1 12 13
M  V30 13 1 13 14
M  V30 14 1 14 15
M  V30 15 1 15 16
M  V30 16 1 16 17
M  V30 17 1 16 18
M  V30 18 1 16 19
M  V30 19 1 19 20
M  V30 20 1 19 21
M  V30 21 1 21 22
M  V30 22 1 21 23
M  V30 23 1 21 24
M  V30 24 1 24 25
M  V30 25 1 7 26
M  V30 26 1 26 27
M  V30 27 1 26 28
M  V30 28 1 28 29
M  V30 29 1 28 30
M  V30 30 1 28 2
M  V30 31 1 24 14
M  V30 32 1 1 31
M  V30 33 1 1 32
M  V30 34 1 1 33
M  V30 35 1 4 34
M  V30 36 1 4 35
M  V30 37 1 4 36
M  V30 38 1 5 37
M  V30 39 1 5 38
M  V30 40 1 5 39
M  V30 41 1 6 40
M  V30 42 1 6 41
M  V30 43 1 7 42
M  V30 44 1 8 43
M  V30 45 1 8 44
M  V30 46 1 9 45
M  V30 47 1 9 46
M  V30 48 1 10 47
M  V30 49 1 10 48
M  V30 50 1 11 49
M  V30 51 1 11 50
M  V30 52 1 12 51
M  V30 53 1 12 52
M  V30 54 1 13 53
M  V30 55 1 13 54
M  V30 56 1 14 55
M  V30 57 1 15 56
M  V30 58 1 15 57
M  V30 59 1 17 58
M  V30 60 1 17 59
M  V30 61 1 17 60
M  V30 62 1 18 61
M  V30 63 1 18 62
M  V30 64 1 18 63
M  V30 65 1 20 64
M  V30 66 1 20 65
M  V30 67 1 20 66
M  V30 68 1 22 67
M  V30 69 1 22 68
M  V30 70 1 22 69
M  V30 71 1 23 70
M  V30 72 1 23 71
M  V30 73 1 23 72
M  V30 74 1 24 73
M  V30 75 1 25 74
M  V30 76 1 25 75
M  V30 77 1 26 76
M  V30 78 1 27 77
M  V30 79 1 27 78
M  V30 80 1 29 79
M  V30 81 1 29 80
M  V30 82 1 29 81
M  V30 83 1 30 82
M  V30 84 1 30 83
M  V30 85 1 30 84
M  V30 END BOND
M  V30 END CTAB
M  END
