
     RDKit          3D

  0  0  0  0  0  0  0  0  0  0999 V3000
M  V30 BEGIN CTAB
M  V30 COUNTS 46 48 0 0 0
M  V30 BEGIN ATOM
M  V30 1 N -0.292508 3.83307 -0.427197 0
M  V30 2 C 0.554674 2.68655 -0.354656 0
M  V30 3 N 1.69094 2.6175 -1.06059 0
M  V30 4 C 2.49333 1.56276 -1.01325 0
M  V30 5 N 3.69646 1.48554 -1.75278 0
M  V30 6 C 2.12024 0.483156 -0.183479 0
M  V30 7 C 3.04918 -0.624508 -0.121015 0
M  V30 8 C 3.25159 -1.55608 -1.11296 0
M  V30 9 C 4.1803 -2.56754 -0.965751 0
M  V30 10 C 4.94862 -2.69072 0.185005 0
M  V30 11 Cl 6.12173 -3.99301 0.336328 0
M  V30 12 C 4.75191 -1.76608 1.17753 0
M  V30 13 Cl 5.7148 -1.90924 2.63907 0
M  V30 14 C 3.8273 -0.755181 1.03545 0
M  V30 15 C 0.974431 0.518325 0.545742 0
M  V30 16 C 0.534385 -0.590485 1.39551 0
M  V30 17 C -0.198555 -1.61848 0.580047 0
M  V30 18 C -1.44978 -1.0306 -0.0609376 0
M  V30 19 C -2.41095 -0.559753 0.975854 0
M  V30 20 C -3.65814 0.0308032 0.423085 0
M  V30 21 C -3.67207 1.38684 0.183743 0
M  V30 22 C -4.83679 1.92783 -0.321493 0
M  V30 23 C -5.94176 1.15072 -0.577507 0
M  V30 24 C -5.88575 -0.214257 -0.322007 0
M  V30 25 C -4.73267 -0.789717 0.184869 0
M  V30 26 N 0.212584 1.6589 0.426133 0
M  V30 27 H -0.0828986 4.73514 0.0453432 0
M  V30 28 H -1.18123 3.75319 -0.994794 0
M  V30 29 H 3.83387 2.12266 -2.56349 0
M  V30 30 H 4.45475 0.819253 -1.52337 0
M  V30 31 H 2.65722 -1.47033 -2.0172 0
M  V30 32 H 4.32726 -3.29242 -1.75583 0
M  V30 33 H 3.69169 -0.0303733 1.84532 0
M  V30 34 H 1.39287 -1.12344 1.89264 0
M  V30 35 H -0.15398 -0.237164 2.22247 0
M  V30 36 H 0.385517 -2.06557 -0.237687 0
M  V30 37 H -0.516542 -2.48774 1.24658 0
M  V30 38 H -1.17849 -0.178408 -0.71503 0
M  V30 39 H -1.902 -1.77746 -0.756775 0
M  V30 40 H -2.74599 -1.44635 1.60051 0
M  V30 41 H -2.01029 0.144116 1.72382 0
M  V30 42 H -2.81162 2.01147 0.38066 0
M  V30 43 H -4.88604 3.00524 -0.525021 0
M  V30 44 H -6.8584 1.54983 -0.969641 0
M  V30 45 H -6.72982 -0.853512 -0.509324 0
M  V30 46 H -4.7294 -1.85446 0.369456 0
M  V30 END ATOM
M  V30 BEGIN BOND
M  V30 1 1 1 2
M  V30 2 2 2 3
M  V30 3 1 3 4
M  V30 4 1 4 5
M  V30 5 2 4 6
M  V30 6 1 6 7
M  V30 7 2 7 8
M  V30 8 1 8 9
M  V30 9 2 9 10
M  V30 10 1 10 11
M  V30 11 1 10 12
M  V30 12 1 12 13
M  V30 13 2 12 14
M  V30 14 1 6 15
M  V30 15 1 15 16
M  V30 16 1 16 17
M  V30 17 1 17 18
M  V30 18 1 18 19
M  V30 19 1 19 20
M  V30 20 2 20 21
M  V30 21 1 21 22
M  V30 22 2 22 23
M  V30 23 1 23 24
M  V30 24 2 24 25
M  V30 25 2 15 26
M  V30 26 1 26 2
M  V30 27 1 14 7
M  V30 28 1 25 20
M  V30 29 1 1 27
M  V30 30 1 1 28
M  V30 31 1 5 29
M  V30 32 1 5 30
M  V30 33 1 8 31
M  V30 34 1 9 32
M  V30 35 1 14 33
M  V30 36 1 16 34
M  V30 37 1 16 35
M  V30 38 1 17 36
M  V30 39 1 17 37
M  V30 40 1 18 38
M  V30 41 1 18 39
M  V30 42 1 19 40
M  V30 43 1 19 41
M  V30 44 1 21 42
M  V30 45 1 22 43
M  V30 46 1 23 44
M  V30 47 1 24 45
M  V30 48 1 25 46
M  V30 END BOND
M  V30 END CTAB
M  END
