
     RDKit          3D

  0  0  0  0  0  0  0  0  0  0999 V3000
M  V30 BEGIN CTAB
M  V30 COUNTS 38 40 0 0 0
M  V30 BEGIN ATOM
M  V30 1 N -0.943199 -2.11714 1.64631 0
M  V30 2 C -0.522148 -0.862325 1.15483 0 CFG=2
M  V30 3 C -1.48518 0.166543 1.6973 0 CFG=1
M  V30 4 O -0.993953 1.43964 1.71509 0
M  V30 5 C -2.754 0.076264 0.877722 0 CFG=2
M  V30 6 O -3.2904 -1.21871 0.980546 0
M  V30 7 C -2.45695 0.393511 -0.547738 0 CFG=1
M  V30 8 C -2.88521 1.80104 -0.888045 0
M  V30 9 O -2.73963 2.07147 -2.23795 0
M  V30 10 O -1.12228 0.244371 -0.891503 0
M  V30 11 C -0.578795 -0.932201 -0.356166 0 CFG=1
M  V30 12 N 0.69992 -1.19723 -0.954832 0
M  V30 13 C 1.0163 -2.17043 -1.85506 0
M  V30 14 N 2.3017 -2.11069 -2.18659 0
M  V30 15 C 2.8607 -1.10913 -1.52234 0
M  V30 16 C 1.86508 -0.540715 -0.756192 0
M  V30 17 N 2.21312 0.506637 0.00853001 0
M  V30 18 C 3.43364 1.02908 0.0796561 0
M  V30 19 N 3.67836 2.13836 0.926313 0
M  V30 20 N 4.41326 0.485283 -0.661351 0
M  V30 21 C 4.12575 -0.565314 -1.44671 0
M  V30 22 O 5.0764 -1.04882 -2.12917 0
M  V30 23 H -0.801585 -2.37758 2.56422 0
M  V30 24 H -1.11797 -2.81728 0.980101 0
M  V30 25 H 0.509033 -0.709898 1.53726 0
M  V30 26 H -1.70419 -0.119918 2.76744 0
M  V30 27 H -0.418877 1.70117 0.982307 0
M  V30 28 H -3.48198 0.795026 1.34936 0
M  V30 29 H -4.07203 -1.24522 0.377268 0
M  V30 30 H -3.08357 -0.286526 -1.18259 0
M  V30 31 H -3.92608 2.01138 -0.573187 0
M  V30 32 H -2.2544 2.55097 -0.33732 0
M  V30 33 H -3.45455 2.67822 -2.51139 0
M  V30 34 H -1.28262 -1.7498 -0.691038 0
M  V30 35 H 0.290147 -2.88561 -2.23245 0
M  V30 36 H 4.23361 2.92623 0.576299 0
M  V30 37 H 3.29336 2.13719 1.88509 0
M  V30 38 H 5.35921 0.912137 -0.588041 0
M  V30 END ATOM
M  V30 BEGIN BOND
M  V30 1 1 1 2
M  V30 2 1 2 3
M  V30 3 1 3 4
M  V30 4 1 3 5
M  V30 5 1 5 6
M  V30 6 1 5 7
M  V30 7 1 7 8
M  V30 8 1 8 9
M  V30 9 1 7 10
M  V30 10 1 10 11
M  V30 11 1 11 12
M  V30 12 1 12 13
M  V30 13 2 13 14
M  V30 14 1 14 15
M  V30 15 2 15 16
M  V30 16 1 16 17
M  V30 17 2 17 18
M  V30 18 1 18 19
M  V30 19 1 18 20
M  V30 20 1 20 21
M  V30 21 2 21 22
M  V30 22 1 11 2
M  V30 23 1 16 12
M  V30 24 1 21 15
M  V30 25 1 1 23
M  V30 26 1 1 24
M  V30 27 1 2 25 CFG=3
M  V30 28 1 3 26 CFG=1
M  V30 29 1 4 27
M  V30 30 1 5 28 CFG=1
M  V30 31 1 6 29
M  V30 32 1 7 30 CFG=3
M  V30 33 1 8 31
M  V30 34 1 8 32
M  V30 35 1 9 33
M  V30 36 1 11 34 CFG=1
M  V30 37 1 13 35
M  V30 38 1 19 36
M  V30 39 1 19 37
M  V30 40 1 20 38
M  V30 END BOND
M  V30 END CTAB
M  END
