
     RDKit          3D

  0  0  0  0  0  0  0  0  0  0999 V3000
M  V30 BEGIN CTAB
M  V30 COUNTS 43 44 0 0 0
M  V30 BEGIN ATOM
M  V30 1 C -1.59254 -0.669179 -3.72172 0
M  V30 2 O -2.18784 -0.383425 -2.47371 0
M  V30 3 C -1.45571 -0.631761 -1.32781 0
M  V30 4 C -0.16115 -1.1497 -1.35606 0
M  V30 5 C 0.484179 -1.36202 -0.168697 0
M  V30 6 C 1.85471 -1.89581 -0.133549 0
M  V30 7 C 2.90518 -0.898281 0.132111 0
M  V30 8 C 3.47445 -0.734377 1.38484 0
M  V30 9 N 4.41199 0.18485 1.60398 0
M  V30 10 C 4.8567 0.996424 0.641399 0
M  V30 11 N 5.85466 1.97583 0.876422 0
M  V30 12 N 4.33265 0.871278 -0.585742 0
M  V30 13 C 3.37093 -0.0574733 -0.852053 0
M  V30 14 N 2.91824 -0.0904343 -2.19898 0
M  V30 15 C -0.139026 -1.06765 1.04893 0
M  V30 16 C -1.41273 -0.55758 1.09984 0
M  V30 17 O -2.06615 -0.253338 2.27869 0
M  V30 18 C -1.3714 -0.48514 3.48706 0
M  V30 19 C -2.06297 -0.343492 -0.117461 0
M  V30 20 O -3.33846 0.169148 -0.0724684 0
M  V30 21 C -3.45547 1.60136 -0.0817674 0
M  V30 22 C -4.9147 1.93175 -0.0269076 0
M  V30 23 O -5.51495 1.3578 -1.16391 0
M  V30 24 H -1.13936 -1.69908 -3.74471 0
M  V30 25 H -2.32773 -0.597701 -4.55787 0
M  V30 26 H -0.748353 0.0301179 -3.89286 0
M  V30 27 H 0.243489 -1.35881 -2.32446 0
M  V30 28 H 1.91843 -2.76817 0.569536 0
M  V30 29 H 2.0706 -2.31674 -1.16059 0
M  V30 30 H 3.1538 -1.36172 2.1946 0
M  V30 31 H 6.85266 1.81667 0.702383 0
M  V30 32 H 5.58118 2.91201 1.24479 0
M  V30 33 H 2.81602 0.795166 -2.73006 0
M  V30 34 H 2.68367 -0.976866 -2.67953 0
M  V30 35 H 0.399475 -1.24655 1.96437 0
M  V30 36 H -2.04732 -0.37928 4.37125 0
M  V30 37 H -0.855845 -1.46157 3.53297 0
M  V30 38 H -0.569908 0.299845 3.57413 0
M  V30 39 H -3.04059 1.95434 -1.04823 0
M  V30 40 H -2.89553 2.05405 0.768364 0
M  V30 41 H -5.34301 1.50713 0.90491 0
M  V30 42 H -5.0771 3.02766 0.0307084 0
M  V30 43 H -6.46521 1.26074 -0.9972 0
M  V30 END ATOM
M  V30 BEGIN BOND
M  V30 1 1 1 2
M  V30 2 1 2 3
M  V30 3 2 3 4
M  V30 4 1 4 5
M  V30 5 1 5 6
M  V30 6 1 6 7
M  V30 7 2 7 8
M  V30 8 1 8 9
M  V30 9 2 9 10
M  V30 10 1 10 11
M  V30 11 1 10 12
M  V30 12 2 12 13
M  V30 13 1 13 14
M  V30 14 2 5 15
M  V30 15 1 15 16
M  V30 16 1 16 17
M  V30 17 1 17 18
M  V30 18 2 16 19
M  V30 19 1 19 20
M  V30 20 1 20 21
M  V30 21 1 21 22
M  V30 22 1 22 23
M  V30 23 1 19 3
M  V30 24 1 13 7
M  V30 25 1 1 24
M  V30 26 1 1 25
M  V30 27 1 1 26
M  V30 28 1 4 27
M  V30 29 1 6 28
M  V30 30 1 6 29
M  V30 31 1 8 30
M  V30 32 1 11 31
M  V30 33 1 11 32
M  V30 34 1 14 33
M  V30 35 1 14 34
M  V30 36 1 15 35
M  V30 37 1 18 36
M  V30 38 1 18 37
M  V30 39 1 18 38
M  V30 40 1 21 39
M  V30 41 1 21 40
M  V30 42 1 22 41
M  V30 43 1 22 42
M  V30 44 1 23 43
M  V30 END BOND
M  V30 END CTAB
M  END
