
     RDKit          3D

  0  0  0  0  0  0  0  0  0  0999 V3000
M  V30 BEGIN CTAB
M  V30 COUNTS 39 40 0 0 0
M  V30 BEGIN ATOM
M  V30 1 N -2.72901 -1.73541 -1.4725 0
M  V30 2 C -1.42772 -1.86766 -0.829828 0
M  V30 3 C -1.61833 -2.73297 0.37439 0
M  V30 4 C -1.63192 -1.731 1.46688 0
M  V30 5 O -1.66931 -2.03379 2.70833 0
M  V30 6 N -1.59807 -0.4077 0.948226 0
M  V30 7 C -0.995791 -0.521634 -0.365678 0
M  V30 8 C 0.453404 -0.290257 -0.389754 0
M  V30 9 C 1.36995 -0.802481 0.496585 0
M  V30 10 C 2.72321 -0.545135 0.417884 0
M  V30 11 C 3.2091 0.261293 -0.587664 0
M  V30 12 C 2.32209 0.799054 -1.503 0
M  V30 13 C 0.973494 0.524276 -1.39949 0
M  V30 14 N 2.85347 1.62992 -2.53277 0
M  V30 15 C 4.66671 0.572105 -0.71843 0
M  V30 16 C -2.07675 0.788974 1.62235 0
M  V30 17 C -0.957683 1.7905 1.79825 0
M  V30 18 C -3.14676 1.49689 0.801673 0
M  V30 19 H -3.47071 -1.61994 -0.718942 0
M  V30 20 H -2.77634 -0.847329 -2.02928 0
M  V30 21 H -0.758724 -2.3176 -1.58916 0
M  V30 22 H -2.61121 -3.24847 0.398624 0
M  V30 23 H -0.849581 -3.50689 0.502993 0
M  V30 24 H -1.52553 0.254095 -0.988306 0
M  V30 25 H 1.00669 -1.43326 1.28619 0
M  V30 26 H 3.42988 -0.966917 1.13803 0
M  V30 27 H 0.325 0.974492 -2.14678 0
M  V30 28 H 3.56041 2.37678 -2.36809 0
M  V30 29 H 2.5294 1.49924 -3.51444 0
M  V30 30 H 5.25221 -0.357177 -0.537379 0
M  V30 31 H 4.86951 0.88792 -1.76755 0
M  V30 32 H 4.97101 1.4078 -0.0732424 0
M  V30 33 H -2.47324 0.519924 2.60213 0
M  V30 34 H -1.33258 2.56508 2.52434 0
M  V30 35 H -0.0642434 1.34934 2.29484 0
M  V30 36 H -0.704831 2.32405 0.865999 0
M  V30 37 H -3.42769 2.41111 1.31924 0
M  V30 38 H -2.68501 1.72726 -0.18379 0
M  V30 39 H -3.98453 0.805545 0.59998 0
M  V30 END ATOM
M  V30 BEGIN BOND
M  V30 1 1 1 2
M  V30 2 1 2 3
M  V30 3 1 3 4
M  V30 4 2 4 5
M  V30 5 1 4 6
M  V30 6 1 6 7
M  V30 7 1 7 8
M  V30 8 2 8 9
M  V30 9 1 9 10
M  V30 10 2 10 11
M  V30 11 1 11 12
M  V30 12 2 12 13
M  V30 13 1 12 14
M  V30 14 1 11 15
M  V30 15 1 6 16
M  V30 16 1 16 17
M  V30 17 1 16 18
M  V30 18 1 7 2
M  V30 19 1 13 8
M  V30 20 1 1 19
M  V30 21 1 1 20
M  V30 22 1 2 21
M  V30 23 1 3 22
M  V30 24 1 3 23
M  V30 25 1 7 24
M  V30 26 1 9 25
M  V30 27 1 10 26
M  V30 28 1 13 27
M  V30 29 1 14 28
M  V30 30 1 14 29
M  V30 31 1 15 30
M  V30 32 1 15 31
M  V30 33 1 15 32
M  V30 34 1 16 33
M  V30 35 1 17 34
M  V30 36 1 17 35
M  V30 37 1 17 36
M  V30 38 1 18 37
M  V30 39 1 18 38
M  V30 40 1 18 39
M  V30 END BOND
M  V30 END CTAB
M  END
