
     RDKit          3D

  0  0  0  0  0  0  0  0  0  0999 V3000
M  V30 BEGIN CTAB
M  V30 COUNTS 35 37 0 0 0
M  V30 BEGIN ATOM
M  V30 1 N 5.97665 -0.387873 0.128227 0
M  V30 2 C 4.73262 0.24353 -0.0673611 0
M  V30 3 C 4.75756 1.56684 -0.485116 0
M  V30 4 N 3.60219 2.18412 -0.67651 0
M  V30 5 C 2.42815 1.58305 -0.483299 0
M  V30 6 C 2.368 0.283694 -0.0730028 0
M  V30 7 C 3.56188 -0.412497 0.143184 0
M  V30 8 C 1.09439 -0.427546 0.155279 0
M  V30 9 C -0.127997 0.169196 -0.0293916 0
M  V30 10 C -1.32555 -0.492385 0.183025 0
M  V30 11 N -1.25352 -1.77205 0.586697 0
M  V30 12 C -0.0556696 -2.38442 0.776372 0
M  V30 13 N 1.10252 -1.70907 0.559734 0
M  V30 14 N -0.0108605 -3.73193 1.20154 0
M  V30 15 N -2.58274 0.143532 -0.0139065 0
M  V30 16 C -3.87728 -0.44749 0.176509 0
M  V30 17 C -4.85175 0.708561 0.130216 0
M  V30 18 C -4.18403 1.63231 -0.873787 0
M  V30 19 C -2.73259 1.53037 -0.451158 0
M  V30 20 H 6.62786 -0.011446 0.841716 0
M  V30 21 H 6.29178 -1.22373 -0.406492 0
M  V30 22 H 5.67762 2.09728 -0.655266 0
M  V30 23 H 1.52658 2.12978 -0.653176 0
M  V30 24 H 3.50712 -1.44353 0.468779 0
M  V30 25 H -0.208474 1.18259 -0.349001 0
M  V30 26 H 0.493154 -3.94659 2.09263 0
M  V30 27 H -0.435097 -4.528 0.705863 0
M  V30 28 H -3.89762 -0.971116 1.13971 0
M  V30 29 H -4.05841 -1.13625 -0.676853 0
M  V30 30 H -5.85824 0.423617 -0.18941 0
M  V30 31 H -4.82178 1.23916 1.11079 0
M  V30 32 H -4.51297 2.66971 -0.79372 0
M  V30 33 H -4.29545 1.23561 -1.9174 0
M  V30 34 H -2.60828 2.21747 0.410809 0
M  V30 35 H -2.04977 1.78549 -1.27041 0
M  V30 END ATOM
M  V30 BEGIN BOND
M  V30 1 1 1 2
M  V30 2 2 2 3
M  V30 3 1 3 4
M  V30 4 2 4 5
M  V30 5 1 5 6
M  V30 6 2 6 7
M  V30 7 1 6 8
M  V30 8 2 8 9
M  V30 9 1 9 10
M  V30 10 2 10 11
M  V30 11 1 11 12
M  V30 12 2 12 13
M  V30 13 1 12 14
M  V30 14 1 10 15
M  V30 15 1 15 16
M  V30 16 1 16 17
M  V30 17 1 17 18
M  V30 18 1 18 19
M  V30 19 1 7 2
M  V30 20 1 13 8
M  V30 21 1 19 15
M  V30 22 1 1 20
M  V30 23 1 1 21
M  V30 24 1 3 22
M  V30 25 1 5 23
M  V30 26 1 7 24
M  V30 27 1 9 25
M  V30 28 1 14 26
M  V30 29 1 14 27
M  V30 30 1 16 28
M  V30 31 1 16 29
M  V30 32 1 17 30
M  V30 33 1 17 31
M  V30 34 1 18 32
M  V30 35 1 18 33
M  V30 36 1 19 34
M  V30 37 1 19 35
M  V30 END BOND
M  V30 END CTAB
M  END
