
     RDKit          3D

  0  0  0  0  0  0  0  0  0  0999 V3000
M  V30 BEGIN CTAB
M  V30 COUNTS 35 36 0 0 0
M  V30 BEGIN ATOM
M  V30 1 C 0.0850021 0.659422 2.24075 0
M  V30 2 C 0.0728857 0.852993 0.722064 0
M  V30 3 C -0.00956912 2.3625 0.513591 0
M  V30 4 C 1.2596 0.300668 0.0983115 0
M  V30 5 C 1.46597 0.399028 -1.25322 0
M  V30 6 C 2.56974 -0.102927 -1.8899 0
M  V30 7 C 3.54843 -0.74968 -1.15995 0
M  V30 8 N 4.71077 -1.28697 -1.7751 0
M  V30 9 C 3.34994 -0.856514 0.217407 0
M  V30 10 C 2.22292 -0.339275 0.836505 0
M  V30 11 C -1.19785 0.246894 0.219737 0
M  V30 12 C -2.13474 1.02276 -0.437099 0
M  V30 13 C -3.31741 0.486375 -0.914102 0
M  V30 14 C -3.61525 -0.851916 -0.754536 0
M  V30 15 N -4.83089 -1.38773 -1.24856 0
M  V30 16 C -2.67266 -1.62121 -0.0964278 0
M  V30 17 C -1.49185 -1.08748 0.380139 0
M  V30 18 H -0.0873745 -0.379929 2.52533 0
M  V30 19 H 1.00243 1.10108 2.68194 0
M  V30 20 H -0.759446 1.26089 2.63456 0
M  V30 21 H 0.0405331 2.6071 -0.57515 0
M  V30 22 H 0.957661 2.76288 0.933975 0
M  V30 23 H -0.831199 2.83015 1.05046 0
M  V30 24 H 0.701853 0.909905 -1.86069 0
M  V30 25 H 2.71943 -0.0189868 -2.95685 0
M  V30 26 H 4.87111 -2.29932 -1.74363 0
M  V30 27 H 5.37406 -0.651773 -2.2425 0
M  V30 28 H 4.10268 -1.35706 0.79815 0
M  V30 29 H 2.14743 -0.464903 1.90778 0
M  V30 30 H -1.92568 2.07984 -0.576419 0
M  V30 31 H -4.06094 1.1022 -1.4353 0
M  V30 32 H -5.40959 -0.799391 -1.87671 0
M  V30 33 H -5.17747 -2.3377 -1.01758 0
M  V30 34 H -2.91493 -2.6811 0.027315 0
M  V30 35 H -0.765583 -1.71082 0.894166 0
M  V30 END ATOM
M  V30 BEGIN BOND
M  V30 1 1 1 2
M  V30 2 1 2 3
M  V30 3 1 2 4
M  V30 4 2 4 5
M  V30 5 1 5 6
M  V30 6 2 6 7
M  V30 7 1 7 8
M  V30 8 1 7 9
M  V30 9 2 9 10
M  V30 10 1 2 11
M  V30 11 2 11 12
M  V30 12 1 12 13
M  V30 13 2 13 14
M  V30 14 1 14 15
M  V30 15 1 14 16
M  V30 16 2 16 17
M  V30 17 1 10 4
M  V30 18 1 17 11
M  V30 19 1 1 18
M  V30 20 1 1 19
M  V30 21 1 1 20
M  V30 22 1 3 21
M  V30 23 1 3 22
M  V30 24 1 3 23
M  V30 25 1 5 24
M  V30 26 1 6 25
M  V30 27 1 8 26
M  V30 28 1 8 27
M  V30 29 1 9 28
M  V30 30 1 10 29
M  V30 31 1 12 30
M  V30 32 1 13 31
M  V30 33 1 15 32
M  V30 34 1 15 33
M  V30 35 1 16 34
M  V30 36 1 17 35
M  V30 END BOND
M  V30 END CTAB
M  END
