
     RDKit          3D

  0  0  0  0  0  0  0  0  0  0999 V3000
M  V30 BEGIN CTAB
M  V30 COUNTS 50 53 0 0 0
M  V30 BEGIN ATOM
M  V30 1 C -9.52566 0.509582 0.545257 0
M  V30 2 C -8.10141 0.226745 0.208322 0
M  V30 3 N -7.12309 0.889433 0.844284 0
M  V30 4 C -5.80818 0.684307 0.589896 0
M  V30 5 C -4.82284 1.37575 1.25436 0
M  V30 6 C -3.47382 1.12683 0.954309 0
M  V30 7 C -3.13124 0.202744 0.00783519 0
M  V30 8 N -1.78623 -0.0972859 -0.317197 0
M  V30 9 C -0.662463 0.229593 0.411885 0
M  V30 10 O -0.670573 0.842048 1.48333 0
M  V30 11 C 0.6791 -0.167339 -0.0962785 0
M  V30 12 O 0.673948 -0.783406 -1.17587 0
M  V30 13 N 1.82191 0.143769 0.607802 0
M  V30 14 C 3.15125 -0.180161 0.239516 0
M  V30 15 C 3.50124 -1.09916 -0.711999 0
M  V30 16 C 4.81963 -1.39123 -1.07406 0
M  V30 17 C 5.81866 -0.704202 -0.424085 0
M  V30 18 N 7.11784 -0.909743 -0.69697 0
M  V30 19 C 8.08611 -0.235656 -0.0584422 0
M  V30 20 C 9.49489 -0.538673 -0.435926 0
M  V30 21 C 7.77871 0.697779 0.90657 0
M  V30 22 C 6.46827 0.955853 1.23346 0
M  V30 23 N 6.10917 1.91112 2.22322 0
M  V30 24 C 5.49076 0.228092 0.54076 0
M  V30 25 C 4.20398 0.494481 0.874718 0
M  V30 26 C -4.16583 -0.487433 -0.654083 0
M  V30 27 C -5.48244 -0.253125 -0.370517 0
M  V30 28 C -6.46857 -0.965009 -1.056 0
M  V30 29 N -6.14592 -1.93286 -2.04712 0
M  V30 30 C -7.79619 -0.712732 -0.753448 0
M  V30 31 H -9.62762 0.302488 1.63696 0
M  V30 32 H -10.193 -0.180329 0.00369032 0
M  V30 33 H -9.78052 1.57166 0.404777 0
M  V30 34 H -5.07857 2.10651 2.00291 0
M  V30 35 H -2.75063 1.71656 1.5071 0
M  V30 36 H -1.6319 -0.633629 -1.23136 0
M  V30 37 H 1.68521 0.679487 1.52077 0
M  V30 38 H 2.7337 -1.68279 -1.24676 0
M  V30 39 H 5.03873 -2.12665 -1.83321 0
M  V30 40 H 9.66467 -0.106261 -1.44913 0
M  V30 41 H 10.2178 -0.0453898 0.243132 0
M  V30 42 H 9.68485 -1.62137 -0.421858 0
M  V30 43 H 8.59986 1.23058 1.40853 0
M  V30 44 H 6.14238 2.92776 1.91359 0
M  V30 45 H 5.8318 1.6456 3.18572 0
M  V30 46 H 3.95806 1.22634 1.63143 0
M  V30 47 H -3.86334 -1.22195 -1.40708 0
M  V30 48 H -5.84315 -1.68425 -3.00131 0
M  V30 49 H -6.2211 -2.94142 -1.79039 0
M  V30 50 H -8.6182 -1.22307 -1.24076 0
M  V30 END ATOM
M  V30 BEGIN BOND
M  V30 1 1 1 2
M  V30 2 2 2 3
M  V30 3 1 3 4
M  V30 4 2 4 5
M  V30 5 1 5 6
M  V30 6 2 6 7
M  V30 7 1 7 8
M  V30 8 1 8 9
M  V30 9 2 9 10
M  V30 10 1 9 11
M  V30 11 2 11 12
M  V30 12 1 11 13
M  V30 13 1 13 14
M  V30 14 2 14 15
M  V30 15 1 15 16
M  V30 16 2 16 17
M  V30 17 1 17 18
M  V30 18 2 18 19
M  V30 19 1 19 20
M  V30 20 1 19 21
M  V30 21 2 21 22
M  V30 22 1 22 23
M  V30 23 1 22 24
M  V30 24 2 24 25
M  V30 25 1 7 26
M  V30 26 2 26 27
M  V30 27 1 27 28
M  V30 28 1 28 29
M  V30 29 2 28 30
M  V30 30 1 30 2
M  V30 31 1 27 4
M  V30 32 1 25 14
M  V30 33 1 24 17
M  V30 34 1 1 31
M  V30 35 1 1 32
M  V30 36 1 1 33
M  V30 37 1 5 34
M  V30 38 1 6 35
M  V30 39 1 8 36
M  V30 40 1 13 37
M  V30 41 1 15 38
M  V30 42 1 16 39
M  V30 43 1 20 40
M  V30 44 1 20 41
M  V30 45 1 20 42
M  V30 46 1 21 43
M  V30 47 1 23 44
M  V30 48 1 23 45
M  V30 49 1 25 46
M  V30 50 1 26 47
M  V30 51 1 29 48
M  V30 52 1 29 49
M  V30 53 1 30 50
M  V30 END BOND
M  V30 END CTAB
M  END
