
     RDKit          3D

  0  0  0  0  0  0  0  0  0  0999 V3000
M  V30 BEGIN CTAB
M  V30 COUNTS 72 75 0 0 0
M  V30 BEGIN ATOM
M  V30 1 N 8.85599 4.35793 2.81727 0
M  V30 2 C 9.19182 3.58357 1.67766 0
M  V30 3 N 8.84317 3.97671 0.515705 0
M  V30 4 N 9.91535 2.36844 1.80326 0
M  V30 5 S 9.17373 0.904051 2.33564 0
M  V30 6 O 8.61453 1.12665 3.70877 0
M  V30 7 O 10.1933 -0.190193 2.31752 0
M  V30 8 C 7.8988 0.427015 1.21882 0
M  V30 9 C 8.16367 -0.396542 0.144744 0
M  V30 10 C 7.20084 -0.788362 -0.739246 0
M  V30 11 C 5.86216 -0.368074 -0.603353 0
M  V30 12 N 4.90084 -0.818137 -1.5268 0
M  V30 13 C 3.62728 -0.28525 -1.67603 0
M  V30 14 O 3.14091 0.671133 -1.02868 0
M  V30 15 C 2.72772 -0.896795 -2.70399 0
M  V30 16 C 3.20214 -1.34145 -3.91025 0
M  V30 17 C 2.36079 -1.90368 -4.84099 0
M  V30 18 C 1.01689 -2.02319 -4.55822 0
M  V30 19 C 0.554947 -1.57371 -3.34634 0
M  V30 20 C 1.39047 -1.01797 -2.42809 0
M  V30 21 S 0.790901 -0.437413 -0.85847 0
M  V30 22 S -1.29249 -0.738752 -0.622723 0
M  V30 23 C -1.55951 -2.34215 0.121598 0
M  V30 24 C -2.7878 -2.87937 0.393181 0
M  V30 25 C -2.90532 -4.1699 0.941201 0
M  V30 26 C -1.81185 -4.93948 1.22703 0
M  V30 27 C -0.575472 -4.39152 0.952619 0
M  V30 28 C -0.43879 -3.13385 0.416838 0
M  V30 29 C -4.00903 -2.12496 0.184563 0
M  V30 30 O -5.03682 -2.87977 -0.0551836 0
M  V30 31 N -4.21733 -0.760537 0.210746 0
M  V30 32 C -5.46615 -0.120993 -0.00552484 0
M  V30 33 C -5.45875 1.17569 -0.562945 0
M  V30 34 C -6.62797 1.86029 -0.770582 0
M  V30 35 C -7.84958 1.30968 -0.443628 0
M  V30 36 C -7.88142 0.0461688 0.10209 0
M  V30 37 C -6.67901 -0.652384 0.313434 0
M  V30 38 S -9.32644 2.2014 -0.720122 0
M  V30 39 O -9.20209 3.09538 -1.92314 0
M  V30 40 O -10.4011 1.18309 -0.988533 0
M  V30 41 N -9.66058 3.13375 0.686995 0
M  V30 42 C -9.88784 2.51575 1.93189 0
M  V30 43 N -9.09117 2.81935 3.07808 0
M  V30 44 N -10.8383 1.65525 2.04492 0
M  V30 45 C 5.61431 0.443382 0.459932 0
M  V30 46 C 6.60383 0.850749 1.37452 0
M  V30 47 H 9.57902 4.83313 3.42349 0
M  V30 48 H 7.86738 4.49829 3.11768 0
M  V30 49 H 9.07059 3.43905 -0.33219 0
M  V30 50 H 10.9473 2.39146 1.55362 0
M  V30 51 H 9.21375 -0.716038 0.0524823 0
M  V30 52 H 7.42213 -1.43076 -1.57094 0
M  V30 53 H 5.1532 -1.64494 -2.18032 0
M  V30 54 H 4.26324 -1.23262 -4.10131 0
M  V30 55 H 2.75323 -2.24677 -5.78251 0
M  V30 56 H 0.363728 -2.47057 -5.30485 0
M  V30 57 H -0.510087 -1.68284 -3.15563 0
M  V30 58 H -3.89173 -4.5833 1.1504 0
M  V30 59 H -1.9539 -5.92237 1.64648 0
M  V30 60 H 0.282719 -5.02291 1.18937 0
M  V30 61 H 0.541693 -2.73551 0.214656 0
M  V30 62 H -3.43028 -0.103019 0.43337 0
M  V30 63 H -4.51257 1.60946 -0.818868 0
M  V30 64 H -6.65677 2.86304 -1.19916 0
M  V30 65 H -8.81163 -0.447684 0.383236 0
M  V30 66 H -6.75615 -1.64033 0.766939 0
M  V30 67 H -9.69309 4.16684 0.609516 0
M  V30 68 H -8.94297 2.06094 3.77123 0
M  V30 69 H -8.66516 3.74636 3.24103 0
M  V30 70 H -11.4181 1.42761 1.23581 0
M  V30 71 H 4.61105 0.81455 0.662774 0
M  V30 72 H 6.33398 1.49793 2.19747 0
M  V30 END ATOM
M  V30 BEGIN BOND
M  V30 1 1 1 2
M  V30 2 2 2 3 CFG=2
M  V30 3 1 2 4
M  V30 4 1 4 5
M  V30 5 2 5 6
M  V30 6 2 5 7
M  V30 7 1 5 8
M  V30 8 2 8 9
M  V30 9 1 9 10
M  V30 10 2 10 11
M  V30 11 1 11 12
M  V30 12 1 12 13
M  V30 13 2 13 14
M  V30 14 1 13 15
M  V30 15 2 15 16
M  V30 16 1 16 17
M  V30 17 2 17 18
M  V30 18 1 18 19
M  V30 19 2 19 20
M  V30 20 1 20 21
M  V30 21 1 21 22
M  V30 22 1 22 23
M  V30 23 1 23 24
M  V30 24 2 24 25
M  V30 25 1 25 26
M  V30 26 2 26 27
M  V30 27 1 27 28
M  V30 28 1 24 29
M  V30 29 2 29 30
M  V30 30 1 29 31
M  V30 31 1 31 32
M  V30 32 2 32 33
M  V30 33 1 33 34
M  V30 34 2 34 35
M  V30 35 1 35 36
M  V30 36 2 36 37
M  V30 37 1 35 38
M  V30 38 2 38 39
M  V30 39 2 38 40
M  V30 40 1 38 41
M  V30 41 1 41 42
M  V30 42 1 42 43
M  V30 43 2 42 44 CFG=2
M  V30 44 1 11 45
M  V30 45 2 45 46
M  V30 46 1 46 8
M  V30 47 1 20 15
M  V30 48 2 28 23
M  V30 49 1 37 32
M  V30 50 1 1 47
M  V30 51 1 1 48
M  V30 52 1 3 49
M  V30 53 1 4 50
M  V30 54 1 9 51
M  V30 55 1 10 52
M  V30 56 1 12 53
M  V30 57 1 16 54
M  V30 58 1 17 55
M  V30 59 1 18 56
M  V30 60 1 19 57
M  V30 61 1 25 58
M  V30 62 1 26 59
M  V30 63 1 27 60
M  V30 64 1 28 61
M  V30 65 1 31 62
M  V30 66 1 33 63
M  V30 67 1 34 64
M  V30 68 1 36 65
M  V30 69 1 37 66
M  V30 70 1 41 67
M  V30 71 1 43 68
M  V30 72 1 43 69
M  V30 73 1 44 70
M  V30 74 1 45 71
M  V30 75 1 46 72
M  V30 END BOND
M  V30 END CTAB
M  END
