
     RDKit          3D

  0  0  0  0  0  0  0  0  0  0999 V3000
M  V30 BEGIN CTAB
M  V30 COUNTS 24 24 0 0 0
M  V30 BEGIN ATOM
M  V30 1 C 4.43801 0.449105 1.4802 0
M  V30 2 C 3.76757 1.35825 0.508135 0
M  V30 3 O 2.40023 1.00996 0.360758 0
M  V30 4 C 2.01324 -0.240921 -0.0889933 0
M  V30 5 O 2.91039 -1.06323 -0.364413 0
M  V30 6 C 0.574838 -0.591882 -0.238559 0
M  V30 7 C 0.19902 -1.83474 -0.68537 0
M  V30 8 S -1.50329 -1.70255 -0.668374 0
M  V30 9 C -1.62904 -0.099579 -0.102805 0
M  V30 10 N -2.77538 0.718012 0.166724 0
M  V30 11 C -3.96588 0.27999 -0.00930211 0
M  V30 12 N -4.2195 -1.02742 -0.476878 0
M  V30 13 N -5.05434 1.13059 0.27294 0
M  V30 14 N -0.372115 0.255182 0.0448787 0
M  V30 15 H 5.06811 -0.307706 0.989665 0
M  V30 16 H 5.04955 0.967155 2.24563 0
M  V30 17 H 3.65363 -0.122993 2.05368 0
M  V30 18 H 4.249 1.21341 -0.499072 0
M  V30 19 H 3.88017 2.43683 0.729716 0
M  V30 20 H 0.855074 -2.67627 -0.971943 0
M  V30 21 H -4.53519 -1.22007 -1.47045 0
M  V30 22 H -4.1019 -1.85554 0.151359 0
M  V30 23 H -5.70929 0.97138 1.08199 0
M  V30 24 H -5.1929 1.95303 -0.371437 0
M  V30 END ATOM
M  V30 BEGIN BOND
M  V30 1 1 1 2
M  V30 2 1 2 3
M  V30 3 1 3 4
M  V30 4 2 4 5
M  V30 5 1 4 6
M  V30 6 2 6 7
M  V30 7 1 7 8
M  V30 8 1 8 9
M  V30 9 1 9 10
M  V30 10 2 10 11
M  V30 11 1 11 12
M  V30 12 1 11 13
M  V30 13 2 9 14
M  V30 14 1 14 6
M  V30 15 1 1 15
M  V30 16 1 1 16
M  V30 17 1 1 17
M  V30 18 1 2 18
M  V30 19 1 2 19
M  V30 20 1 7 20
M  V30 21 1 12 21
M  V30 22 1 12 22
M  V30 23 1 13 23
M  V30 24 1 13 24
M  V30 END BOND
M  V30 END CTAB
M  END
