
     RDKit          3D

  0  0  0  0  0  0  0  0  0  0999 V3000
M  V30 BEGIN CTAB
M  V30 COUNTS 63 66 0 0 0
M  V30 BEGIN ATOM
M  V30 1 C -4.91377 2.91947 1.39723 0
M  V30 2 C -3.67521 2.84571 0.523911 0
M  V30 3 N -3.74715 1.69753 -0.346942 0
M  V30 4 C -2.84232 0.620791 -0.144793 0
M  V30 5 N -3.34259 -0.574081 0.150503 0
M  V30 6 C -2.51305 -1.60809 0.348438 0
M  V30 7 N -3.11522 -2.8563 0.657443 0
M  V30 8 C -1.13305 -1.44223 0.249685 0
M  V30 9 C -0.567313 -0.222462 -0.0480349 0
M  V30 10 C -1.48345 0.793406 -0.244142 0
M  V30 11 C -1.03787 2.08124 -0.680003 0
M  V30 12 N -0.692358 3.12219 -1.05531 0
M  V30 13 C 0.901218 -0.322259 -0.0764117 0
M  V30 14 C 1.54153 0.144977 -1.25275 0
M  V30 15 N 2.04953 0.515607 -2.22256 0
M  V30 16 C 1.53796 0.18169 1.19546 0
M  V30 17 C 1.34525 1.52631 1.66213 0
M  V30 18 O 0.332586 1.76854 2.43473 0
M  V30 19 C 2.16813 2.69046 1.37358 0
M  V30 20 C 1.82191 3.95007 1.82788 0
M  V30 21 C 2.56485 5.07632 1.60422 0
M  V30 22 C 3.72661 4.99869 0.893595 0
M  V30 23 C 4.11583 3.76489 0.418923 0
M  V30 24 C 3.34139 2.62265 0.658795 0
M  V30 25 Cl 4.72573 6.41667 0.572662 0
M  V30 26 C 1.13451 -1.86441 0.106318 0
M  V30 27 C -0.034519 -2.39055 0.311658 0
M  V30 28 N -0.327802 -3.76074 0.702169 0
M  V30 29 C 2.44398 -2.42061 -0.117727 0
M  V30 30 O 3.4434 -1.59572 -0.154413 0
M  V30 31 C 2.84621 -3.78232 -0.314332 0
M  V30 32 C 4.17484 -4.16662 0.0114207 0
M  V30 33 C 4.69009 -5.39099 -0.242621 0
M  V30 34 C 3.93505 -6.36047 -0.848257 0
M  V30 35 C 2.64748 -6.05453 -1.1895 0
M  V30 36 C 2.12918 -4.78719 -0.922847 0
M  V30 37 Cl 4.627 -7.94072 -1.16447 0
M  V30 38 C -4.70477 1.60271 -1.4197 0
M  V30 39 C -4.4122 2.59145 -2.51018 0
M  V30 40 H -5.17131 3.99407 1.51259 0
M  V30 41 H -5.77001 2.36215 0.97423 0
M  V30 42 H -4.69551 2.51862 2.42872 0
M  V30 43 H -2.80723 2.83583 1.18097 0
M  V30 44 H -3.59846 3.75887 -0.129016 0
M  V30 45 H -3.23185 -3.57909 -0.0853631 0
M  V30 46 H -3.45998 -3.10776 1.6064 0
M  V30 47 H 1.16159 -0.528642 2.00178 0
M  V30 48 H 2.6507 -0.0167513 1.22526 0
M  V30 49 H 0.899745 4.06391 2.40134 0
M  V30 50 H 2.23322 6.01841 1.98763 0
M  V30 51 H 5.04132 3.67956 -0.151846 0
M  V30 52 H 3.68798 1.68653 0.283747 0
M  V30 53 H -0.894011 -4.40004 0.129672 0
M  V30 54 H 0.0591162 -4.09605 1.60407 0
M  V30 55 H 4.77796 -3.40958 0.492503 0
M  V30 56 H 5.70816 -5.64112 0.0230614 0
M  V30 57 H 2.04795 -6.81606 -1.66778 0
M  V30 58 H 1.12873 -4.61375 -1.29279 0
M  V30 59 H -5.72291 1.84999 -0.998116 0
M  V30 60 H -4.76067 0.594235 -1.84943 0
M  V30 61 H -3.99138 2.046 -3.37761 0
M  V30 62 H -3.64693 3.32439 -2.17756 0
M  V30 63 H -5.34785 3.08518 -2.85342 0
M  V30 END ATOM
M  V30 BEGIN BOND
M  V30 1 1 1 2
M  V30 2 1 2 3
M  V30 3 1 3 4
M  V30 4 2 4 5
M  V30 5 1 5 6
M  V30 6 1 6 7
M  V30 7 2 6 8
M  V30 8 1 8 9
M  V30 9 2 9 10
M  V30 10 1 10 11
M  V30 11 3 11 12
M  V30 12 1 9 13
M  V30 13 1 13 14
M  V30 14 3 14 15
M  V30 15 1 13 16
M  V30 16 1 16 17
M  V30 17 2 17 18
M  V30 18 1 17 19
M  V30 19 2 19 20
M  V30 20 1 20 21
M  V30 21 2 21 22
M  V30 22 1 22 23
M  V30 23 2 23 24
M  V30 24 1 22 25
M  V30 25 1 13 26
M  V30 26 2 26 27
M  V30 27 1 27 28
M  V30 28 1 26 29
M  V30 29 2 29 30
M  V30 30 1 29 31
M  V30 31 2 31 32
M  V30 32 1 32 33
M  V30 33 2 33 34
M  V30 34 1 34 35
M  V30 35 2 35 36
M  V30 36 1 34 37
M  V30 37 1 3 38
M  V30 38 1 38 39
M  V30 39 1 10 4
M  V30 40 1 24 19
M  V30 41 1 36 31
M  V30 42 1 27 8
M  V30 43 1 1 40
M  V30 44 1 1 41
M  V30 45 1 1 42
M  V30 46 1 2 43
M  V30 47 1 2 44
M  V30 48 1 7 45
M  V30 49 1 7 46
M  V30 50 1 16 47
M  V30 51 1 16 48
M  V30 52 1 20 49
M  V30 53 1 21 50
M  V30 54 1 23 51
M  V30 55 1 24 52
M  V30 56 1 28 53
M  V30 57 1 28 54
M  V30 58 1 32 55
M  V30 59 1 33 56
M  V30 60 1 35 57
M  V30 61 1 36 58
M  V30 62 1 38 59
M  V30 63 1 38 60
M  V30 64 1 39 61
M  V30 65 1 39 62
M  V30 66 1 39 63
M  V30 END BOND
M  V30 END CTAB
M  END
