
     RDKit          3D

  0  0  0  0  0  0  0  0  0  0999 V3000
M  V30 BEGIN CTAB
M  V30 COUNTS 39 40 0 0 0
M  V30 BEGIN ATOM
M  V30 1 C -4.39298 3.20704 2.40677 0
M  V30 2 C -3.39471 2.43053 2.02888 0
M  V30 3 C -3.5935 1.48381 0.873825 0
M  V30 4 S -3.30875 -0.182378 1.53376 0
M  V30 5 C -3.51675 -1.41848 0.24416 0
M  V30 6 C -4.73358 -1.98471 0.0132788 0
M  V30 7 C -4.91953 -2.94327 -0.97886 0
M  V30 8 C -3.80227 -3.28006 -1.70689 0
M  V30 9 C -2.54492 -2.7148 -1.49009 0
M  V30 10 C -2.39806 -1.77176 -0.50243 0
M  V30 11 N -1.14285 -1.15472 -0.228116 0
M  V30 12 C 0.083667 -1.36151 -0.84878 0
M  V30 13 O 0.302816 -2.15225 -1.78699 0
M  V30 14 C 1.24607 -0.557185 -0.339105 0
M  V30 15 S 2.70643 -0.98321 -1.2754 0
M  V30 16 C 4.11385 -0.0359915 -0.687518 0
M  V30 17 N 3.94464 0.834919 0.322678 0
M  V30 18 C 4.94957 1.59023 0.829121 0
M  V30 19 N 4.72235 2.49335 1.89326 0
M  V30 20 N 6.1666 1.42891 0.261418 0
M  V30 21 C 6.37428 0.56342 -0.755176 0
M  V30 22 N 5.32987 -0.157153 -1.21082 0
M  V30 23 N 7.66779 0.403806 -1.34557 0
M  V30 24 H -5.35387 3.177 1.902 0
M  V30 25 H -4.27477 3.8952 3.23347 0
M  V30 26 H -2.44753 2.48458 2.55376 0
M  V30 27 H -2.87104 1.73918 0.0735844 0
M  V30 28 H -4.61793 1.5723 0.501674 0
M  V30 29 H -5.6218 -1.70173 0.608778 0
M  V30 30 H -5.87634 -3.40537 -1.17891 0
M  V30 31 H -3.89481 -4.0308 -2.50097 0
M  V30 32 H -1.71172 -3.05069 -2.12597 0
M  V30 33 H -1.15861 -0.436964 0.564726 0
M  V30 34 H 1.0068 0.509952 -0.477837 0
M  V30 35 H 1.39812 -0.851577 0.713721 0
M  V30 36 H 4.21481 2.18367 2.74098 0
M  V30 37 H 5.06504 3.46788 1.82391 0
M  V30 38 H 8.07263 1.16361 -1.93029 0
M  V30 39 H 8.21098 -0.454768 -1.20254 0
M  V30 END ATOM
M  V30 BEGIN BOND
M  V30 1 2 1 2 CFG=2
M  V30 2 1 2 3
M  V30 3 1 3 4
M  V30 4 1 4 5
M  V30 5 2 5 6
M  V30 6 1 6 7
M  V30 7 2 7 8
M  V30 8 1 8 9
M  V30 9 2 9 10
M  V30 10 1 10 11
M  V30 11 1 11 12
M  V30 12 2 12 13
M  V30 13 1 12 14
M  V30 14 1 14 15
M  V30 15 1 15 16
M  V30 16 2 16 17
M  V30 17 1 17 18
M  V30 18 1 18 19
M  V30 19 2 18 20
M  V30 20 1 20 21
M  V30 21 2 21 22
M  V30 22 1 21 23
M  V30 23 1 10 5
M  V30 24 1 22 16
M  V30 25 1 1 24
M  V30 26 1 1 25
M  V30 27 1 2 26
M  V30 28 1 3 27
M  V30 29 1 3 28
M  V30 30 1 6 29
M  V30 31 1 7 30
M  V30 32 1 8 31
M  V30 33 1 9 32
M  V30 34 1 11 33
M  V30 35 1 14 34
M  V30 36 1 14 35
M  V30 37 1 19 36
M  V30 38 1 19 37
M  V30 39 1 23 38
M  V30 40 1 23 39
M  V30 END BOND
M  V30 END CTAB
M  END
