
     RDKit          3D

  0  0  0  0  0  0  0  0  0  0999 V3000
M  V30 BEGIN CTAB
M  V30 COUNTS 45 47 0 0 0
M  V30 BEGIN ATOM
M  V30 1 N -2.75615 3.44361 -2.25257 0
M  V30 2 C -2.28996 2.17903 -1.75979 0
M  V30 3 N -2.19328 2.09291 -0.490287 0
M  V30 4 C -1.75834 0.907097 0.175791 0
M  V30 5 N -1.18976 -0.043927 -0.719144 0
M  V30 6 C -0.372025 -1.16528 -0.186739 0
M  V30 7 C 0.94659 -0.594448 0.351393 0
M  V30 8 C 1.81114 -1.67639 0.908622 0
M  V30 9 O 3.02475 -1.27698 1.41897 0
M  V30 10 C 4.13074 -0.706799 0.887262 0
M  V30 11 C 5.19523 -0.414147 1.75814 0
M  V30 12 C 6.35835 0.157713 1.3333 0
M  V30 13 C 6.53166 0.471058 0.023749 0
M  V30 14 Cl 8.02926 1.20896 -0.538889 0
M  V30 15 C 5.51325 0.199767 -0.859225 0
M  V30 16 C 4.31761 -0.386046 -0.434984 0
M  V30 17 C -1.35003 0.0952972 -2.1185 0
M  V30 18 N -0.900995 -1.00828 -2.91472 0
M  V30 19 N -1.86728 1.14902 -2.64701 0
M  V30 20 C -3.01083 0.339725 0.821115 0
M  V30 21 C -3.68937 1.13104 1.74108 0
M  V30 22 C -4.84127 0.666433 2.33402 0
M  V30 23 C -5.33319 -0.572911 2.02944 0
M  V30 24 Cl -6.80823 -1.10498 2.8232 0
M  V30 25 C -4.67611 -1.36766 1.123 0
M  V30 26 C -3.50039 -0.900305 0.513681 0
M  V30 27 H -2.24519 4.28498 -1.92151 0
M  V30 28 H -3.54354 3.56319 -2.89601 0
M  V30 29 H -1.0541 1.15583 1.02223 0
M  V30 30 H -0.244948 -1.93652 -0.931799 0
M  V30 31 H -0.888171 -1.54547 0.711981 0
M  V30 32 H 0.751348 0.221345 1.06304 0
M  V30 33 H 1.42849 -0.139578 -0.522423 0
M  V30 34 H 1.23215 -2.26674 1.67647 0
M  V30 35 H 2.02902 -2.46619 0.119399 0
M  V30 36 H 5.05469 -0.663201 2.79911 0
M  V30 37 H 7.13959 0.358729 2.04612 0
M  V30 38 H 5.65794 0.450214 -1.88968 0
M  V30 39 H 3.55325 -0.594925 -1.17033 0
M  V30 40 H -0.202097 -0.853744 -3.66451 0
M  V30 41 H -1.28724 -1.93736 -2.72073 0
M  V30 42 H -3.31023 2.10027 1.98415 0
M  V30 43 H -5.34472 1.31249 3.04779 0
M  V30 44 H -5.04375 -2.33532 0.874171 0
M  V30 45 H -3.00389 -1.53153 -0.210476 0
M  V30 END ATOM
M  V30 BEGIN BOND
M  V30 1 1 1 2
M  V30 2 2 2 3
M  V30 3 1 3 4
M  V30 4 1 4 5
M  V30 5 1 5 6
M  V30 6 1 6 7
M  V30 7 1 7 8
M  V30 8 1 8 9
M  V30 9 1 9 10
M  V30 10 2 10 11
M  V30 11 1 11 12
M  V30 12 2 12 13
M  V30 13 1 13 14
M  V30 14 1 13 15
M  V30 15 2 15 16
M  V30 16 1 5 17
M  V30 17 1 17 18
M  V30 18 2 17 19
M  V30 19 1 4 20
M  V30 20 2 20 21
M  V30 21 1 21 22
M  V30 22 2 22 23
M  V30 23 1 23 24
M  V30 24 1 23 25
M  V30 25 2 25 26
M  V30 26 1 19 2
M  V30 27 1 26 20
M  V30 28 1 16 10
M  V30 29 1 1 27
M  V30 30 1 1 28
M  V30 31 1 4 29
M  V30 32 1 6 30
M  V30 33 1 6 31
M  V30 34 1 7 32
M  V30 35 1 7 33
M  V30 36 1 8 34
M  V30 37 1 8 35
M  V30 38 1 11 36
M  V30 39 1 12 37
M  V30 40 1 15 38
M  V30 41 1 16 39
M  V30 42 1 18 40
M  V30 43 1 18 41
M  V30 44 1 21 42
M  V30 45 1 22 43
M  V30 46 1 25 44
M  V30 47 1 26 45
M  V30 END BOND
M  V30 END CTAB
M  END
