
     RDKit          3D

  0  0  0  0  0  0  0  0  0  0999 V3000
M  V30 BEGIN CTAB
M  V30 COUNTS 34 35 0 0 0
M  V30 BEGIN ATOM
M  V30 1 N 1.47158 2.12373 -2.436 0
M  V30 2 C 2.07034 1.31853 -1.42432 0
M  V30 3 N 3.39235 1.46299 -1.12472 0
M  V30 4 N 3.75904 0.609017 -0.21098 0
M  V30 5 C 2.66984 -0.112203 0.10289 0
M  V30 6 C 1.56234 0.307767 -0.649436 0
M  V30 7 C 0.192756 -0.208161 -0.552183 0 CFG=1
M  V30 8 C 0.41754 -1.6833 -0.0135714 0
M  V30 9 C -0.747281 -2.54667 -0.304041 0
M  V30 10 C -1.82231 -2.56056 0.746563 0
M  V30 11 C -2.25618 -1.22246 1.2346 0
M  V30 12 C -2.02051 -0.10842 0.236363 0
M  V30 13 N -0.640706 0.32127 0.433595 0
M  V30 14 S -0.516681 1.743 1.21953 0
M  V30 15 O 0.776172 1.98593 1.9662 0
M  V30 16 O -1.63429 1.92945 2.24145 0
M  V30 17 N -0.658611 3.08 0.146596 0
M  V30 18 H 1.22252 1.76317 -3.38268 0
M  V30 19 H 1.275 3.12119 -2.20798 0
M  V30 20 H 4.72469 0.515536 0.190788 0
M  V30 21 H 2.6845 -0.901254 0.841994 0
M  V30 22 H -0.247623 -0.359122 -1.54195 0
M  V30 23 H 0.56061 -1.56334 1.0649 0
M  V30 24 H 1.29496 -2.0598 -0.553038 0
M  V30 25 H -1.17092 -2.39823 -1.33589 0
M  V30 26 H -0.359196 -3.61162 -0.351494 0
M  V30 27 H -1.45879 -3.20777 1.58246 0
M  V30 28 H -2.70028 -3.09612 0.321977 0
M  V30 29 H -3.34434 -1.20324 1.50451 0
M  V30 30 H -1.73202 -0.95535 2.18173 0
M  V30 31 H -2.18054 -0.400297 -0.807643 0
M  V30 32 H -2.68421 0.746626 0.479842 0
M  V30 33 H -1.62988 3.22084 -0.184199 0
M  V30 34 H -0.269877 3.94888 0.584139 0
M  V30 END ATOM
M  V30 BEGIN BOND
M  V30 1 1 1 2
M  V30 2 2 2 3
M  V30 3 1 3 4
M  V30 4 1 4 5
M  V30 5 2 5 6
M  V30 6 1 6 7
M  V30 7 1 7 8
M  V30 8 1 8 9
M  V30 9 1 9 10
M  V30 10 1 10 11
M  V30 11 1 11 12
M  V30 12 1 12 13
M  V30 13 1 13 14
M  V30 14 2 14 15
M  V30 15 2 14 16
M  V30 16 1 14 17
M  V30 17 1 6 2
M  V30 18 1 13 7
M  V30 19 1 1 18
M  V30 20 1 1 19
M  V30 21 1 4 20
M  V30 22 1 5 21
M  V30 23 1 7 22 CFG=3
M  V30 24 1 8 23
M  V30 25 1 8 24
M  V30 26 1 9 25
M  V30 27 1 9 26
M  V30 28 1 10 27
M  V30 29 1 10 28
M  V30 30 1 11 29
M  V30 31 1 11 30
M  V30 32 1 12 31
M  V30 33 1 12 32
M  V30 34 1 17 33
M  V30 35 1 17 34
M  V30 END BOND
M  V30 END CTAB
M  END
