
     RDKit          3D

  0  0  0  0  0  0  0  0  0  0999 V3000
M  V30 BEGIN CTAB
M  V30 COUNTS 28 28 0 0 0
M  V30 BEGIN ATOM
M  V30 1 C 4.26083 -0.10928 -0.970552 0
M  V30 2 C 3.76754 -1.07534 0.0766565 0
M  V30 3 O 2.67384 -0.591954 0.827769 0
M  V30 4 C 1.44299 -0.247432 0.301416 0
M  V30 5 O 1.25726 -0.365008 -0.924949 0
M  V30 6 C 0.395347 0.250055 1.22937 0
M  V30 7 C -0.859225 0.574931 0.543577 0
M  V30 8 C -1.16194 1.89895 0.306344 0
M  V30 9 C -2.30519 2.31188 -0.332436 0
M  V30 10 Br -2.69354 4.13611 -0.645127 0
M  V30 11 C -3.19404 1.36816 -0.758022 0
M  V30 12 C -2.93216 0.0317051 -0.541868 0
M  V30 13 C -1.76316 -0.370848 0.110201 0
M  V30 14 N -1.49692 -1.75374 0.332121 0
M  V30 15 N -3.86789 -0.939765 -0.990693 0
M  V30 16 H 5.04049 -0.637176 -1.54677 0
M  V30 17 H 4.75901 0.758915 -0.494449 0
M  V30 18 H 3.50183 0.286773 -1.63781 0
M  V30 19 H 3.41329 -2.01039 -0.418581 0
M  V30 20 H 4.60321 -1.27289 0.779705 0
M  V30 21 H 0.777265 1.15759 1.73935 0
M  V30 22 H 0.279405 -0.513422 2.02445 0
M  V30 23 H -0.466695 2.68514 0.636801 0
M  V30 24 H -4.11377 1.61491 -1.26667 0
M  V30 25 H -1.87748 -2.41596 -0.382133 0
M  V30 26 H -0.968398 -2.13254 1.12957 0
M  V30 27 H -4.00343 -1.86579 -0.512145 0
M  V30 28 H -4.46847 -0.77359 -1.82534 0
M  V30 END ATOM
M  V30 BEGIN BOND
M  V30 1 1 1 2
M  V30 2 1 2 3
M  V30 3 1 3 4
M  V30 4 2 4 5
M  V30 5 1 4 6
M  V30 6 1 6 7
M  V30 7 2 7 8
M  V30 8 1 8 9
M  V30 9 1 9 10
M  V30 10 2 9 11
M  V30 11 1 11 12
M  V30 12 2 12 13
M  V30 13 1 13 14
M  V30 14 1 12 15
M  V30 15 1 13 7
M  V30 16 1 1 16
M  V30 17 1 1 17
M  V30 18 1 1 18
M  V30 19 1 2 19
M  V30 20 1 2 20
M  V30 21 1 6 21
M  V30 22 1 6 22
M  V30 23 1 8 23
M  V30 24 1 11 24
M  V30 25 1 14 25
M  V30 26 1 14 26
M  V30 27 1 15 27
M  V30 28 1 15 28
M  V30 END BOND
M  V30 END CTAB
M  END
