
     RDKit          3D

  0  0  0  0  0  0  0  0  0  0999 V3000
M  V30 BEGIN CTAB
M  V30 COUNTS 43 45 0 0 0
M  V30 BEGIN ATOM
M  V30 1 C -4.16947 1.84025 -1.14287 0
M  V30 2 C -2.75108 1.27325 -1.29269 0
M  V30 3 C -2.49155 0.427811 -0.0903431 0
M  V30 4 O -1.23291 -0.170802 -0.0676899 0
M  V30 5 C -0.927411 -0.980566 1.04125 0
M  V30 6 C -1.81846 -1.18461 2.06823 0
M  V30 7 C -1.48455 -1.98553 3.14075 0
M  V30 8 C -0.251325 -2.5913 3.19462 0
M  V30 9 C 0.628687 -2.36958 2.14661 0
M  V30 10 C 0.311671 -1.57653 1.0747 0
M  V30 11 C 1.32236 -1.38517 0.00369289 0
M  V30 12 C 0.875949 -1.79112 -1.30346 0
M  V30 13 C 0.969714 -1.00941 -2.35 0
M  V30 14 N 0.517062 -1.43118 -3.65214 0
M  V30 15 O 1.50442 0.267364 -2.29413 0
M  V30 16 C 1.96788 0.75043 -1.06983 0
M  V30 17 C 1.89219 -0.0262942 0.0432539 0
M  V30 18 C 2.36823 0.491329 1.25661 0
M  V30 19 C 2.90179 1.74785 1.34789 0
M  V30 20 C 2.98015 2.54738 0.205577 0
M  V30 21 C 2.50878 2.02062 -0.972417 0
M  V30 22 N 3.53427 3.84089 0.323506 0
M  V30 23 C 0.304577 -3.09129 -1.50694 0
M  V30 24 N -0.144624 -4.16592 -1.67696 0
M  V30 25 H -4.30315 2.12542 -0.0792589 0
M  V30 26 H -4.92524 1.04234 -1.32795 0
M  V30 27 H -4.36887 2.65779 -1.83836 0
M  V30 28 H -2.79414 0.627859 -2.19607 0
M  V30 29 H -2.07769 2.13253 -1.4168 0
M  V30 30 H -3.3375 -0.263911 0.0470414 0
M  V30 31 H -2.53982 1.11164 0.809041 0
M  V30 32 H -2.8058 -0.69371 2.01458 0
M  V30 33 H -2.23802 -2.10259 3.91766 0
M  V30 34 H -0.0132272 -3.21816 4.05287 0
M  V30 35 H 1.5899 -2.85963 2.21885 0
M  V30 36 H 2.19496 -2.06382 0.26777 0
M  V30 37 H -0.421265 -1.18824 -4.00942 0
M  V30 38 H 1.1692 -1.99469 -4.23029 0
M  V30 39 H 2.28818 -0.154134 2.10503 0
M  V30 40 H 3.26667 2.13141 2.30217 0
M  V30 41 H 2.54688 2.59868 -1.87664 0
M  V30 42 H 4.11059 4.30717 -0.41344 0
M  V30 43 H 3.34199 4.35618 1.22595 0
M  V30 END ATOM
M  V30 BEGIN BOND
M  V30 1 1 1 2
M  V30 2 1 2 3
M  V30 3 1 3 4
M  V30 4 1 4 5
M  V30 5 2 5 6
M  V30 6 1 6 7
M  V30 7 2 7 8
M  V30 8 1 8 9
M  V30 9 2 9 10
M  V30 10 1 10 11
M  V30 11 1 11 12
M  V30 12 2 12 13
M  V30 13 1 13 14
M  V30 14 1 13 15
M  V30 15 1 15 16
M  V30 16 2 16 17
M  V30 17 1 17 18
M  V30 18 2 18 19
M  V30 19 1 19 20
M  V30 20 2 20 21
M  V30 21 1 20 22
M  V30 22 1 12 23
M  V30 23 3 23 24
M  V30 24 1 10 5
M  V30 25 1 17 11
M  V30 26 1 21 16
M  V30 27 1 1 25
M  V30 28 1 1 26
M  V30 29 1 1 27
M  V30 30 1 2 28
M  V30 31 1 2 29
M  V30 32 1 3 30
M  V30 33 1 3 31
M  V30 34 1 6 32
M  V30 35 1 7 33
M  V30 36 1 8 34
M  V30 37 1 9 35
M  V30 38 1 11 36
M  V30 39 1 14 37
M  V30 40 1 14 38
M  V30 41 1 18 39
M  V30 42 1 19 40
M  V30 43 1 21 41
M  V30 44 1 22 42
M  V30 45 1 22 43
M  V30 END BOND
M  V30 END CTAB
M  END
