
     RDKit          3D

  0  0  0  0  0  0  0  0  0  0999 V3000
M  V30 BEGIN CTAB
M  V30 COUNTS 31 31 0 0 0
M  V30 BEGIN ATOM
M  V30 1 O -4.58557 -0.353865 -0.239157 0
M  V30 2 C -3.5767 0.576981 -0.0185711 0
M  V30 3 C -2.23849 0.0625871 -0.571973 0
M  V30 4 C -1.92039 -1.20313 0.131501 0
M  V30 5 C -0.620909 -1.18513 0.892599 0
M  V30 6 C 0.467361 -0.615132 0.0203458 0
M  V30 7 C 0.170968 0.786548 -0.390303 0
M  V30 8 C -1.25218 1.14868 -0.482649 0
M  V30 9 N 1.72466 -0.649447 0.709635 0
M  V30 10 C 2.88279 -0.161734 0.0731138 0
M  V30 11 N 3.62745 0.768849 0.582429 0
M  V30 12 N 4.74888 1.20787 -0.0834018 0
M  V30 13 N 3.24665 -0.724642 -1.19311 0
M  V30 14 H -5.40775 0.0163169 0.13452 0
M  V30 15 H -3.78568 1.54397 -0.467844 0
M  V30 16 H -3.39393 0.727764 1.08563 0
M  V30 17 H -2.46574 -0.173312 -1.6511 0
M  V30 18 H -2.7052 -1.50377 0.857612 0
M  V30 19 H -1.84493 -2.06513 -0.592364 0
M  V30 20 H -0.718355 -0.657879 1.8641 0
M  V30 21 H -0.338519 -2.23387 1.13177 0
M  V30 22 H 0.560342 -1.30405 -0.857213 0
M  V30 23 H 0.722512 0.968347 -1.35922 0
M  V30 24 H 0.68647 1.47111 0.340953 0
M  V30 25 H -1.3809 1.81515 -1.38749 0
M  V30 26 H -1.54022 1.82248 0.37709 0
M  V30 27 H 1.78616 -1.02673 1.66296 0
M  V30 28 H 4.73777 2.0121 -0.7571 0
M  V30 29 H 5.68325 0.736974 0.065768 0
M  V30 30 H 3.69299 -1.66156 -1.21617 0
M  V30 31 H 3.03724 -0.146358 -2.04376 0
M  V30 END ATOM
M  V30 BEGIN BOND
M  V30 1 1 1 2
M  V30 2 1 2 3
M  V30 3 1 3 4
M  V30 4 1 4 5
M  V30 5 1 5 6
M  V30 6 1 6 7
M  V30 7 1 7 8
M  V30 8 1 6 9
M  V30 9 1 9 10
M  V30 10 2 10 11 CFG=2
M  V30 11 1 11 12
M  V30 12 1 10 13
M  V30 13 1 8 3
M  V30 14 1 1 14
M  V30 15 1 2 15
M  V30 16 1 2 16
M  V30 17 1 3 17
M  V30 18 1 4 18
M  V30 19 1 4 19
M  V30 20 1 5 20
M  V30 21 1 5 21
M  V30 22 1 6 22
M  V30 23 1 7 23
M  V30 24 1 7 24
M  V30 25 1 8 25
M  V30 26 1 8 26
M  V30 27 1 9 27
M  V30 28 1 12 28
M  V30 29 1 12 29
M  V30 30 1 13 30
M  V30 31 1 13 31
M  V30 END BOND
M  V30 END CTAB
M  END
