
     RDKit          3D

  0  0  0  0  0  0  0  0  0  0999 V3000
M  V30 BEGIN CTAB
M  V30 COUNTS 52 54 0 0 0
M  V30 BEGIN ATOM
M  V30 1 C -5.09311 1.64836 1.55623 0
M  V30 2 C -5.37966 0.258637 0.994321 0
M  V30 3 C -4.75254 -0.71397 1.97949 0
M  V30 4 N -6.76777 0.0524472 0.819841 0
M  V30 5 C -7.31621 -0.215682 -0.297024 0
M  V30 6 N -8.7302 -0.415708 -0.418702 0
M  V30 7 N -6.54694 -0.33516 -1.51109 0
M  V30 8 C -5.27174 -0.1682 -1.47524 0
M  V30 9 N -4.50675 -0.285915 -2.6766 0
M  V30 10 N -4.66382 0.128852 -0.235994 0
M  V30 11 C -3.24086 0.303781 -0.253043 0
M  V30 12 C -2.40408 -0.749849 -0.0604135 0
M  V30 13 C -1.03296 -0.527218 -0.0861901 0
M  V30 14 C -0.462588 0.697666 -0.295254 0
M  V30 15 C -1.36811 1.75619 -0.489419 0
M  V30 16 C -2.72265 1.56406 -0.468824 0
M  V30 17 C 0.957029 0.981958 -0.331326 0
M  V30 18 C 1.85093 0.041942 -0.158071 0
M  V30 19 C 3.31155 0.358636 -0.199415 0
M  V30 20 O 3.57324 1.56322 -0.407816 0
M  V30 21 N 4.22276 -0.683679 -0.00808743 0
M  V30 22 C 5.62103 -0.575425 -0.0141009 0
M  V30 23 C 6.38339 -1.73349 0.230518 0
M  V30 24 C 7.75516 -1.74436 0.246738 0
M  V30 25 C 8.48094 -0.598749 0.0198546 0
M  V30 26 C 7.76038 0.543059 -0.221045 0
M  V30 27 C 6.35828 0.559337 -0.238712 0
M  V30 28 S 10.2317 -0.614974 0.0410772 0
M  V30 29 F 10.7347 -0.301669 1.60429 0
M  V30 30 O 10.7762 -1.90616 -0.470203 0
M  V30 31 O 10.7781 0.513184 -0.820881 0
M  V30 32 H -5.76982 1.76332 2.4514 0
M  V30 33 H -5.36806 2.38939 0.793756 0
M  V30 34 H -4.04714 1.70913 1.85298 0
M  V30 35 H -3.74397 -0.323292 2.21639 0
M  V30 36 H -5.32386 -0.678584 2.94144 0
M  V30 37 H -4.64763 -1.72783 1.58152 0
M  V30 38 H -9.39015 0.0405786 0.230853 0
M  V30 39 H -9.10699 -1.02724 -1.16842 0
M  V30 40 H -3.73816 0.415049 -2.79234 0
M  V30 41 H -4.72699 -1.02463 -3.35992 0
M  V30 42 H -2.75172 -1.75832 0.112706 0
M  V30 43 H -0.359693 -1.39081 0.0715518 0
M  V30 44 H -0.993131 2.76905 -0.663235 0
M  V30 45 H -3.42899 2.38569 -0.619622 0
M  V30 46 H 1.26052 2.02771 -0.511523 0
M  V30 47 H 1.54167 -0.967869 0.0157875 0
M  V30 48 H 3.7988 -1.64536 0.156008 0
M  V30 49 H 5.8297 -2.65534 0.413568 0
M  V30 50 H 8.31309 -2.67222 0.442207 0
M  V30 51 H 8.27762 1.48639 -0.408689 0
M  V30 52 H 5.83958 1.48406 -0.434388 0
M  V30 END ATOM
M  V30 BEGIN BOND
M  V30 1 1 1 2
M  V30 2 1 2 3
M  V30 3 1 2 4
M  V30 4 2 4 5
M  V30 5 1 5 6
M  V30 6 1 5 7
M  V30 7 2 7 8
M  V30 8 1 8 9
M  V30 9 1 8 10
M  V30 10 1 10 11
M  V30 11 2 11 12
M  V30 12 1 12 13
M  V30 13 2 13 14
M  V30 14 1 14 15
M  V30 15 2 15 16
M  V30 16 1 14 17
M  V30 17 2 17 18
M  V30 18 1 18 19
M  V30 19 2 19 20
M  V30 20 1 19 21
M  V30 21 1 21 22
M  V30 22 2 22 23
M  V30 23 1 23 24
M  V30 24 2 24 25
M  V30 25 1 25 26
M  V30 26 2 26 27
M  V30 27 1 25 28
M  V30 28 1 28 29
M  V30 29 2 28 30
M  V30 30 2 28 31
M  V30 31 1 10 2
M  V30 32 1 16 11
M  V30 33 1 27 22
M  V30 34 1 1 32
M  V30 35 1 1 33
M  V30 36 1 1 34
M  V30 37 1 3 35
M  V30 38 1 3 36
M  V30 39 1 3 37
M  V30 40 1 6 38
M  V30 41 1 6 39
M  V30 42 1 9 40
M  V30 43 1 9 41
M  V30 44 1 12 42
M  V30 45 1 13 43
M  V30 46 1 15 44
M  V30 47 1 16 45
M  V30 48 1 17 46
M  V30 49 1 18 47
M  V30 50 1 21 48
M  V30 51 1 23 49
M  V30 52 1 24 50
M  V30 53 1 26 51
M  V30 54 1 27 52
M  V30 END BOND
M  V30 END CTAB
M  END
