
     RDKit          3D

  0  0  0  0  0  0  0  0  0  0999 V3000
M  V30 BEGIN CTAB
M  V30 COUNTS 28 27 0 0 0
M  V30 BEGIN ATOM
M  V30 1 N 4.6049 1.35284 -0.132179 0
M  V30 2 C 3.40222 0.707374 -0.678846 0
M  V30 3 C 3.09906 -0.417854 0.266261 0
M  V30 4 N 1.86965 -1.14549 -0.117484 0
M  V30 5 C 0.741871 -0.28772 0.0654392 0
M  V30 6 C -0.535042 -1.08246 -0.0506202 0
M  V30 7 N -1.68199 -0.217746 0.140427 0
M  V30 8 C -2.94636 -0.890952 0.198049 0
M  V30 9 C -4.09811 0.053451 0.474229 0
M  V30 10 N -4.27534 1.06297 -0.522723 0
M  V30 11 H 5.32138 1.56774 -0.83205 0
M  V30 12 H 4.33439 2.12724 0.494589 0
M  V30 13 H 3.57919 0.325882 -1.69628 0
M  V30 14 H 2.54245 1.42224 -0.66386 0
M  V30 15 H 2.95699 -0.0529669 1.3112 0
M  V30 16 H 3.92357 -1.16661 0.221439 0
M  V30 17 H 1.98164 -1.40137 -1.13361 0
M  V30 18 H 0.766604 0.183242 1.0528 0
M  V30 19 H 0.772988 0.465812 -0.778763 0
M  V30 20 H -0.62854 -1.59518 -1.0209 0
M  V30 21 H -0.553327 -1.85589 0.734324 0
M  V30 22 H -1.67804 0.586302 -0.535766 0
M  V30 23 H -2.93797 -1.66478 0.998434 0
M  V30 24 H -3.13924 -1.37111 -0.784275 0
M  V30 25 H -3.98961 0.505998 1.49795 0
M  V30 26 H -5.02461 -0.550538 0.542868 0
M  V30 27 H -5.00734 1.76727 -0.238221 0
M  V30 28 H -3.4014 1.5723 -0.747793 0
M  V30 END ATOM
M  V30 BEGIN BOND
M  V30 1 1 1 2
M  V30 2 1 2 3
M  V30 3 1 3 4
M  V30 4 1 4 5
M  V30 5 1 5 6
M  V30 6 1 6 7
M  V30 7 1 7 8
M  V30 8 1 8 9
M  V30 9 1 9 10
M  V30 10 1 1 11
M  V30 11 1 1 12
M  V30 12 1 2 13
M  V30 13 1 2 14
M  V30 14 1 3 15
M  V30 15 1 3 16
M  V30 16 1 4 17
M  V30 17 1 5 18
M  V30 18 1 5 19
M  V30 19 1 6 20
M  V30 20 1 6 21
M  V30 21 1 7 22
M  V30 22 1 8 23
M  V30 23 1 8 24
M  V30 24 1 9 25
M  V30 25 1 9 26
M  V30 26 1 10 27
M  V30 27 1 10 28
M  V30 END BOND
M  V30 END CTAB
M  END
