
     RDKit          3D

  0  0  0  0  0  0  0  0  0  0999 V3000
M  V30 BEGIN CTAB
M  V30 COUNTS 20 20 0 0 0
M  V30 BEGIN ATOM
M  V30 1 N 0.0836033 -2.57739 -0.0594135 0
M  V30 2 C 0.274202 -1.38051 0.658811 0
M  V30 3 S 1.02643 -1.47847 2.12151 0
M  V30 4 C -0.156714 -0.0788271 0.175312 0
M  V30 5 C 0.811604 0.854733 -0.114062 0
M  V30 6 C 2.24423 0.531187 0.0656352 0
M  V30 7 C 0.385034 2.08307 -0.571195 0
M  V30 8 C -0.967182 2.33867 -0.723071 0
M  V30 9 N -1.88516 1.37348 -0.420157 0
M  V30 10 C -1.49936 0.161583 0.0292835 0
M  V30 11 N -2.42435 -0.865846 0.354059 0
M  V30 12 H -0.827404 -3.06747 0.0287709 0
M  V30 13 H 0.817343 -2.985 -0.670527 0
M  V30 14 H 2.43698 -0.558253 -0.0143009 0
M  V30 15 H 2.66569 0.970864 1.00348 0
M  V30 16 H 2.77552 0.982968 -0.820749 0
M  V30 17 H 1.07012 2.87658 -0.823357 0
M  V30 18 H -1.28606 3.31548 -1.08567 0
M  V30 19 H -2.91381 -1.32219 -0.452904 0
M  V30 20 H -2.63073 -1.17467 1.31855 0
M  V30 END ATOM
M  V30 BEGIN BOND
M  V30 1 1 1 2
M  V30 2 2 2 3
M  V30 3 1 2 4
M  V30 4 2 4 5
M  V30 5 1 5 6
M  V30 6 1 5 7
M  V30 7 2 7 8
M  V30 8 1 8 9
M  V30 9 2 9 10
M  V30 10 1 10 11
M  V30 11 1 10 4
M  V30 12 1 1 12
M  V30 13 1 1 13
M  V30 14 1 6 14
M  V30 15 1 6 15
M  V30 16 1 6 16
M  V30 17 1 7 17
M  V30 18 1 8 18
M  V30 19 1 11 19
M  V30 20 1 11 20
M  V30 END BOND
M  V30 END CTAB
M  END
