
     RDKit          3D

  0  0  0  0  0  0  0  0  0  0999 V3000
M  V30 BEGIN CTAB
M  V30 COUNTS 28 29 0 0 0
M  V30 BEGIN ATOM
M  V30 1 N 0.106787 0.375622 2.16152 0
M  V30 2 C -0.150219 -0.542287 0.919145 0
M  V30 3 C 0.97118 -0.132075 0.0529929 0
M  V30 4 C 1.15038 1.1479 -0.377154 0
M  V30 5 C 2.31703 1.53757 -1.04659 0
M  V30 6 C 3.30316 0.613514 -1.27921 0
M  V30 7 N 3.12521 -0.655321 -0.852249 0
M  V30 8 C 1.9938 -1.01058 -0.20826 0
M  V30 9 N 1.86274 -2.40688 0.142959 0
M  V30 10 C -1.50516 -0.181289 0.557664 0
M  V30 11 C -1.99959 1.11341 0.0711097 0
M  V30 12 C -3.17185 0.291068 -0.553236 0
M  V30 13 C -2.19444 -0.870052 -0.558551 0
M  V30 14 H 1.1161 0.164754 2.37997 0
M  V30 15 H 0.0989152 1.35362 1.79325 0
M  V30 16 H -0.086192 -1.52619 1.3775 0
M  V30 17 H 0.462985 1.96696 -0.211167 0
M  V30 18 H 2.44366 2.55922 -1.38668 0
M  V30 19 H 4.2357 0.884861 -1.81974 0
M  V30 20 H 1.68881 -3.11233 -0.614893 0
M  V30 21 H 1.9125 -2.68567 1.12269 0
M  V30 22 H -2.1335 -0.371159 1.55939 0
M  V30 23 H -1.52816 1.56274 -0.861263 0
M  V30 24 H -2.34894 1.8947 0.767905 0
M  V30 25 H -3.97788 0.14654 0.175045 0
M  V30 26 H -3.44329 0.642913 -1.55637 0
M  V30 27 H -1.60735 -0.894097 -1.47993 0
M  V30 28 H -2.64237 -1.86744 -0.275843 0
M  V30 END ATOM
M  V30 BEGIN BOND
M  V30 1 1 1 2
M  V30 2 1 2 3
M  V30 3 2 3 4
M  V30 4 1 4 5
M  V30 5 2 5 6
M  V30 6 1 6 7
M  V30 7 2 7 8
M  V30 8 1 8 9
M  V30 9 1 2 10
M  V30 10 1 10 11
M  V30 11 1 11 12
M  V30 12 1 12 13
M  V30 13 1 8 3
M  V30 14 1 13 10
M  V30 15 1 1 14
M  V30 16 1 1 15
M  V30 17 1 2 16
M  V30 18 1 4 17
M  V30 19 1 5 18
M  V30 20 1 6 19
M  V30 21 1 9 20
M  V30 22 1 9 21
M  V30 23 1 10 22
M  V30 24 1 11 23
M  V30 25 1 11 24
M  V30 26 1 12 25
M  V30 27 1 12 26
M  V30 28 1 13 27
M  V30 29 1 13 28
M  V30 END BOND
M  V30 END CTAB
M  END
