
     RDKit          3D

  0  0  0  0  0  0  0  0  0  0999 V3000
M  V30 BEGIN CTAB
M  V30 COUNTS 40 41 0 0 0
M  V30 BEGIN ATOM
M  V30 1 C -3.8947 1.58818 -1.21187 0
M  V30 2 C -2.77501 1.49278 -0.20279 0
M  V30 3 C -2.84155 0.20316 0.608987 0
M  V30 4 C -1.73996 0.104816 1.59288 0
M  V30 5 C -0.360411 0.134779 1.0926 0
M  V30 6 N 0.229199 1.36967 1.09534 0
M  V30 7 C 1.50308 1.57133 0.686145 0
M  V30 8 C 2.25347 0.522737 0.250045 0
M  V30 9 C 1.68559 -0.713293 0.239084 0
M  V30 10 C 0.363591 -0.939377 0.659186 0
M  V30 11 C -0.110365 -2.30557 0.545048 0
M  V30 12 C -0.713646 -2.61264 -0.802721 0
M  V30 13 C -1.19668 -4.05249 -0.873699 0
M  V30 14 C 3.56185 0.681945 -0.184851 0
M  V30 15 N 4.28601 -0.462683 -0.624827 0
M  V30 16 N 4.09515 1.90991 -0.172738 0
M  V30 17 C 3.3431 2.96462 0.264226 0
M  V30 18 N 3.96859 4.26384 0.249972 0
M  V30 19 N 2.07883 2.79071 0.682225 0
M  V30 20 H -4.87036 1.87729 -0.745739 0
M  V30 21 H -4.06299 0.617925 -1.75766 0
M  V30 22 H -3.67926 2.34409 -1.99245 0
M  V30 23 H -1.81696 1.50382 -0.763017 0
M  V30 24 H -2.8636 2.39863 0.456219 0
M  V30 25 H -3.82481 0.318 1.18524 0
M  V30 26 H -3.01511 -0.634259 -0.0510102 0
M  V30 27 H -1.93287 -0.819246 2.21126 0
M  V30 28 H -1.92165 0.931273 2.34966 0
M  V30 29 H 2.30315 -1.54791 -0.114295 0
M  V30 30 H 0.76085 -2.99733 0.669311 0
M  V30 31 H -0.90876 -2.56392 1.28792 0
M  V30 32 H 0.075445 -2.50101 -1.60531 0
M  V30 33 H -1.53507 -1.97935 -1.11907 0
M  V30 34 H -0.719934 -4.6783 -0.0701051 0
M  V30 35 H -0.967618 -4.4567 -1.8752 0
M  V30 36 H -2.29636 -4.05184 -0.764326 0
M  V30 37 H 4.45256 -0.572087 -1.64987 0
M  V30 38 H 4.64538 -1.17897 0.0268431 0
M  V30 39 H 4.74608 4.4476 -0.436181 0
M  V30 40 H 3.69573 5.02989 0.877225 0
M  V30 END ATOM
M  V30 BEGIN BOND
M  V30 1 1 1 2
M  V30 2 1 2 3
M  V30 3 1 3 4
M  V30 4 1 4 5
M  V30 5 2 5 6
M  V30 6 1 6 7
M  V30 7 2 7 8
M  V30 8 1 8 9
M  V30 9 2 9 10
M  V30 10 1 10 11
M  V30 11 1 11 12
M  V30 12 1 12 13
M  V30 13 1 8 14
M  V30 14 1 14 15
M  V30 15 2 14 16
M  V30 16 1 16 17
M  V30 17 1 17 18
M  V30 18 2 17 19
M  V30 19 1 10 5
M  V30 20 1 19 7
M  V30 21 1 1 20
M  V30 22 1 1 21
M  V30 23 1 1 22
M  V30 24 1 2 23
M  V30 25 1 2 24
M  V30 26 1 3 25
M  V30 27 1 3 26
M  V30 28 1 4 27
M  V30 29 1 4 28
M  V30 30 1 9 29
M  V30 31 1 11 30
M  V30 32 1 11 31
M  V30 33 1 12 32
M  V30 34 1 12 33
M  V30 35 1 13 34
M  V30 36 1 13 35
M  V30 37 1 13 36
M  V30 38 1 15 37
M  V30 39 1 15 38
M  V30 40 1 18 39
M  V30 41 1 18 40
M  V30 END BOND
M  V30 END CTAB
M  END
