
     RDKit          3D

  0  0  0  0  0  0  0  0  0  0999 V3000
M  V30 BEGIN CTAB
M  V30 COUNTS 30 30 0 0 0
M  V30 BEGIN ATOM
M  V30 1 N 3.57973 0.935707 0.743916 0
M  V30 2 C 3.0113 -0.216619 0.137838 0
M  V30 3 C 1.48362 -0.256911 0.256268 0 CFG=2
M  V30 4 C 1.06565 -1.55435 -0.446692 0
M  V30 5 C -0.294103 -1.90694 0.105534 0
M  V30 6 C -1.26934 -0.894627 -0.509855 0
M  V30 7 N -1.34032 0.304551 0.26733 0
M  V30 8 C -0.438721 1.32888 -0.127319 0
M  V30 9 C 0.946302 0.925248 -0.452297 0
M  V30 10 S -2.92973 0.97711 0.0219242 0
M  V30 11 O -2.96239 2.28209 0.787534 0
M  V30 12 O -3.05752 1.32512 -1.43586 0
M  V30 13 N -4.1696 -0.0457386 0.540081 0
M  V30 14 H 2.95601 1.53692 1.27565 0
M  V30 15 H 4.19164 1.47046 0.138088 0
M  V30 16 H 3.31874 -0.217137 -0.935594 0
M  V30 17 H 3.47188 -1.13036 0.576726 0
M  V30 18 H 1.23518 -0.298806 1.324 0
M  V30 19 H 1.8119 -2.35043 -0.29356 0
M  V30 20 H 0.933908 -1.28526 -1.51426 0
M  V30 21 H -0.59695 -2.93979 -0.0949199 0
M  V30 22 H -0.263086 -1.72555 1.19969 0
M  V30 23 H -2.25224 -1.4153 -0.525514 0
M  V30 24 H -0.997197 -0.683819 -1.55955 0
M  V30 25 H -0.872997 1.82412 -1.04623 0
M  V30 26 H -0.46987 2.13066 0.65202 0
M  V30 27 H 1.6052 1.81536 -0.227873 0
M  V30 28 H 1.08321 0.756757 -1.55628 0
M  V30 29 H -3.93599 -1.03616 0.642079 0
M  V30 30 H -4.84421 0.344825 1.20403 0
M  V30 END ATOM
M  V30 BEGIN BOND
M  V30 1 1 1 2
M  V30 2 1 2 3
M  V30 3 1 3 4
M  V30 4 1 4 5
M  V30 5 1 5 6
M  V30 6 1 6 7
M  V30 7 1 7 8
M  V30 8 1 8 9
M  V30 9 1 7 10
M  V30 10 2 10 11
M  V30 11 2 10 12
M  V30 12 1 10 13
M  V30 13 1 9 3
M  V30 14 1 1 14
M  V30 15 1 1 15
M  V30 16 1 2 16
M  V30 17 1 2 17
M  V30 18 1 3 18 CFG=1
M  V30 19 1 4 19
M  V30 20 1 4 20
M  V30 21 1 5 21
M  V30 22 1 5 22
M  V30 23 1 6 23
M  V30 24 1 6 24
M  V30 25 1 8 25
M  V30 26 1 8 26
M  V30 27 1 9 27
M  V30 28 1 9 28
M  V30 29 1 13 29
M  V30 30 1 13 30
M  V30 END BOND
M  V30 END CTAB
M  END
