
     RDKit          3D

  0  0  0  0  0  0  0  0  0  0999 V3000
M  V30 BEGIN CTAB
M  V30 COUNTS 19 19 0 0 0
M  V30 BEGIN ATOM
M  V30 1 Cl -0.811264 3.83446 -0.12223 0
M  V30 2 C -0.381275 2.13628 -0.0687909 0
M  V30 3 C 0.949584 1.78646 -0.0685797 0
M  V30 4 C 1.28798 0.457405 -0.0268021 0
M  V30 5 N 2.65513 0.0557419 -0.0251045 0
M  V30 6 C 0.307829 -0.534556 0.0150848 0
M  V30 7 C -1.02115 -0.181525 0.0147465 0
M  V30 8 C -1.36389 1.15193 -0.0271408 0
M  V30 9 C -2.04299 -1.25601 0.0598029 0
M  V30 10 F -2.93671 -1.06904 1.11423 0
M  V30 11 F -2.83972 -1.22902 -1.09384 0
M  V30 12 N 0.639492 -1.91508 0.0586386 0
M  V30 13 H 1.74637 2.54238 -0.100915 0
M  V30 14 H 3.14119 -0.265692 -0.876328 0
M  V30 15 H 3.13617 0.110599 0.910979 0
M  V30 16 H -2.40763 1.44007 -0.0277791 0
M  V30 17 H -1.57235 -2.25975 0.0895278 0
M  V30 18 H 0.767237 -2.46012 -0.827003 0
M  V30 19 H 0.745984 -2.34453 1.0015 0
M  V30 END ATOM
M  V30 BEGIN BOND
M  V30 1 1 1 2
M  V30 2 2 2 3
M  V30 3 1 3 4
M  V30 4 1 4 5
M  V30 5 2 4 6
M  V30 6 1 6 7
M  V30 7 2 7 8
M  V30 8 1 7 9
M  V30 9 1 9 10
M  V30 10 1 9 11
M  V30 11 1 6 12
M  V30 12 1 8 2
M  V30 13 1 3 13
M  V30 14 1 5 14
M  V30 15 1 5 15
M  V30 16 1 8 16
M  V30 17 1 9 17
M  V30 18 1 12 18
M  V30 19 1 12 19
M  V30 END BOND
M  V30 END CTAB
M  END
