
     RDKit          3D

  0  0  0  0  0  0  0  0  0  0999 V3000
M  V30 BEGIN CTAB
M  V30 COUNTS 22 22 0 0 0
M  V30 BEGIN ATOM
M  V30 1 C 1.3683 1.79797 0.201851 0
M  V30 2 C 0.0944598 1.10682 -0.0259024 0
M  V30 3 C -0.00895215 -0.248763 0.124346 0
M  V30 4 C 1.20342 -0.953076 0.600835 0
M  V30 5 N 2.39974 -0.677248 -0.137019 0
M  V30 6 C -1.17084 -0.940663 -0.0833107 0
M  V30 7 N -1.34228 -2.3328 0.108014 0
M  V30 8 C -2.29678 -0.17399 -0.470751 0
M  V30 9 C -2.25914 1.17186 -0.630911 0
M  V30 10 C -1.05307 1.7943 -0.405164 0
M  V30 11 H 2.04098 1.84267 -0.688026 0
M  V30 12 H 1.89686 1.52581 1.12848 0
M  V30 13 H 1.10916 2.88712 0.375157 0
M  V30 14 H 1.01139 -2.06371 0.337413 0
M  V30 15 H 1.34375 -0.972828 1.67904 0
M  V30 16 H 3.22255 -0.638568 0.490876 0
M  V30 17 H 2.61267 -1.38236 -0.868094 0
M  V30 18 H -0.686827 -2.90783 0.651928 0
M  V30 19 H -2.18848 -2.80917 -0.30811 0
M  V30 20 H -3.21961 -0.706291 -0.639287 0
M  V30 21 H -3.08909 1.79688 -0.906925 0
M  V30 22 H -0.988215 2.88387 -0.534437 0
M  V30 END ATOM
M  V30 BEGIN BOND
M  V30 1 1 1 2
M  V30 2 2 2 3
M  V30 3 1 3 4
M  V30 4 1 4 5
M  V30 5 1 3 6
M  V30 6 1 6 7
M  V30 7 2 6 8
M  V30 8 1 8 9
M  V30 9 2 9 10
M  V30 10 1 10 2
M  V30 11 1 1 11
M  V30 12 1 1 12
M  V30 13 1 1 13
M  V30 14 1 4 14
M  V30 15 1 4 15
M  V30 16 1 5 16
M  V30 17 1 5 17
M  V30 18 1 7 18
M  V30 19 1 7 19
M  V30 20 1 8 20
M  V30 21 1 9 21
M  V30 22 1 10 22
M  V30 END BOND
M  V30 END CTAB
M  END
