
     RDKit          3D

  0  0  0  0  0  0  0  0  0  0999 V3000
M  V30 BEGIN CTAB
M  V30 COUNTS 78 77 0 0 0
M  V30 BEGIN ATOM
M  V30 1 C -10.4068 -1.05074 -1.13963 0
M  V30 2 C -9.66213 -0.349454 -2.2555 0
M  V30 3 C -8.61309 -1.22402 -2.82298 0
M  V30 4 C -9.32752 1.065 -1.98752 0
M  V30 5 C -8.50418 1.40392 -0.804176 0
M  V30 6 N -8.31646 2.89013 -0.783205 0
M  V30 7 C -7.1414 0.868422 -0.750067 0
M  V30 8 O -6.99728 -0.303042 -0.320196 0
M  V30 9 N -5.99499 1.60112 -1.15597 0
M  V30 10 C -4.66218 1.07201 -1.08918 0
M  V30 11 C -4.29717 0.80269 0.311153 0
M  V30 12 O -5.10294 1.06428 1.22653 0
M  V30 13 N -3.02276 0.247845 0.58452 0
M  V30 14 C -2.55422 -0.0496669 1.95392 0
M  V30 15 C -1.33953 0.797657 2.16906 0
M  V30 16 S -0.56276 0.593926 3.72961 0
M  V30 17 S 0.66329 -1.12975 3.7933 0
M  V30 18 C 2.3215 -0.649523 3.29943 0
M  V30 19 C 2.43435 -0.271202 1.85458 0
M  V30 20 N 3.81618 0.135432 1.58023 0
M  V30 21 C 4.11236 1.43066 1.11603 0
M  V30 22 O 3.08838 2.2112 0.964884 0
M  V30 23 C 5.44802 1.92198 0.812821 0
M  V30 24 N 6.54206 1.02806 0.94055 0
M  V30 25 C 6.76442 -0.155737 0.19697 0
M  V30 26 O 5.9332 -0.481556 -0.682197 0
M  V30 27 C 7.93639 -1.01062 0.426627 0
M  V30 28 N 8.79012 -0.432023 1.47202 0
M  V30 29 C 8.71187 -1.44893 -0.748383 0
M  V30 30 C 9.36318 -0.436199 -1.60627 0
M  V30 31 C 10.1282 -1.16405 -2.75005 0
M  V30 32 C 8.45478 0.521632 -2.33123 0
M  V30 33 C 2.2188 -1.49221 1.03689 0
M  V30 34 O 0.985732 -2.11185 1.09054 0
M  V30 35 O 3.09453 -1.97291 0.315076 0
M  V30 36 C -2.35835 -1.4551 2.17153 0
M  V30 37 O -2.11853 -1.98377 3.41931 0
M  V30 38 O -2.40213 -2.31237 1.21008 0
M  V30 39 H -9.67584 -1.61586 -0.489431 0
M  V30 40 H -11.0484 -0.37258 -0.559738 0
M  V30 41 H -11.0351 -1.84143 -1.59617 0
M  V30 42 H -10.4741 -0.287803 -3.08886 0
M  V30 43 H -8.27929 -2.04905 -2.13051 0
M  V30 44 H -7.6992 -0.617635 -3.05035 0
M  V30 45 H -8.97773 -1.70766 -3.76609 0
M  V30 46 H -8.94361 1.51165 -2.93588 0
M  V30 47 H -10.3183 1.60376 -1.84178 0
M  V30 48 H -9.01169 1.18149 0.154684 0
M  V30 49 H -7.74882 3.13509 0.0580678 0
M  V30 50 H -9.26298 3.34655 -0.760394 0
M  V30 51 H -6.08145 2.59097 -1.53392 0
M  V30 52 H -3.91249 1.76631 -1.54443 0
M  V30 53 H -4.64384 0.0994223 -1.67309 0
M  V30 54 H -2.32975 0.0128033 -0.158663 0
M  V30 55 H -3.40072 0.359329 2.60116 0
M  V30 56 H -0.655064 0.542437 1.29056 0
M  V30 57 H -1.61566 1.88628 1.9611 0
M  V30 58 H 2.61392 0.243375 3.92668 0
M  V30 59 H 3.07121 -1.43668 3.57696 0
M  V30 60 H 1.71469 0.537444 1.64536 0
M  V30 61 H 4.56097 -0.556528 1.7531 0
M  V30 62 H 5.67901 2.88879 1.33592 0
M  V30 63 H 5.42427 2.22894 -0.284266 0
M  V30 64 H 7.29495 1.2471 1.67041 0
M  V30 65 H 7.52501 -1.94511 0.928217 0
M  V30 66 H 9.36168 -1.21621 1.87357 0
M  V30 67 H 9.50347 0.216279 1.04288 0
M  V30 68 H 8.02037 -2.12446 -1.35586 0
M  V30 69 H 9.52163 -2.18268 -0.428894 0
M  V30 70 H 10.1314 0.167959 -1.09047 0
M  V30 71 H 10.4137 -0.432968 -3.53218 0
M  V30 72 H 11.0325 -1.62823 -2.35629 0
M  V30 73 H 9.38597 -1.84665 -3.18641 0
M  V30 74 H 7.96482 1.26269 -1.69858 0
M  V30 75 H 9.01843 1.02273 -3.17753 0
M  V30 76 H 7.68167 -0.0726046 -2.85844 0
M  V30 77 H 0.426356 -2.34154 0.278903 0
M  V30 78 H -2.65498 -1.74697 4.2466 0
M  V30 END ATOM
M  V30 BEGIN BOND
M  V30 1 1 1 2
M  V30 2 1 2 3
M  V30 3 1 2 4
M  V30 4 1 4 5
M  V30 5 1 5 6
M  V30 6 1 5 7
M  V30 7 2 7 8
M  V30 8 1 7 9
M  V30 9 1 9 10
M  V30 10 1 10 11
M  V30 11 2 11 12
M  V30 12 1 11 13
M  V30 13 1 13 14
M  V30 14 1 14 15
M  V30 15 1 15 16
M  V30 16 1 16 17
M  V30 17 1 17 18
M  V30 18 1 18 19
M  V30 19 1 19 20
M  V30 20 1 20 21
M  V30 21 2 21 22
M  V30 22 1 21 23
M  V30 23 1 23 24
M  V30 24 1 24 25
M  V30 25 2 25 26
M  V30 26 1 25 27
M  V30 27 1 27 28
M  V30 28 1 27 29
M  V30 29 1 29 30
M  V30 30 1 30 31
M  V30 31 1 30 32
M  V30 32 1 19 33
M  V30 33 1 33 34
M  V30 34 2 33 35
M  V30 35 1 14 36
M  V30 36 1 36 37
M  V30 37 2 36 38
M  V30 38 1 1 39
M  V30 39 1 1 40
M  V30 40 1 1 41
M  V30 41 1 2 42
M  V30 42 1 3 43
M  V30 43 1 3 44
M  V30 44 1 3 45
M  V30 45 1 4 46
M  V30 46 1 4 47
M  V30 47 1 5 48
M  V30 48 1 6 49
M  V30 49 1 6 50
M  V30 50 1 9 51
M  V30 51 1 10 52
M  V30 52 1 10 53
M  V30 53 1 13 54
M  V30 54 1 14 55
M  V30 55 1 15 56
M  V30 56 1 15 57
M  V30 57 1 18 58
M  V30 58 1 18 59
M  V30 59 1 19 60
M  V30 60 1 20 61
M  V30 61 1 23 62
M  V30 62 1 23 63
M  V30 63 1 24 64
M  V30 64 1 27 65
M  V30 65 1 28 66
M  V30 66 1 28 67
M  V30 67 1 29 68
M  V30 68 1 29 69
M  V30 69 1 30 70
M  V30 70 1 31 71
M  V30 71 1 31 72
M  V30 72 1 31 73
M  V30 73 1 32 74
M  V30 74 1 32 75
M  V30 75 1 32 76
M  V30 76 1 34 77
M  V30 77 1 37 78
M  V30 END BOND
M  V30 END CTAB
M  END
