
     RDKit          3D

  0  0  0  0  0  0  0  0  0  0999 V3000
M  V30 BEGIN CTAB
M  V30 COUNTS 39 40 0 0 0
M  V30 BEGIN ATOM
M  V30 1 N 0.758862 2.43113 0.135981 0
M  V30 2 C 1.14143 1.43895 -0.84477 0
M  V30 3 C 2.40933 0.780297 -0.530581 0
M  V30 4 C 2.7357 0.320009 0.742136 0
M  V30 5 C 3.94693 -0.285764 0.941728 0
M  V30 6 C 4.88582 -0.477514 -0.0435677 0
M  V30 7 C 4.55487 -0.0163013 -1.31143 0
M  V30 8 C 3.33863 0.596495 -1.53037 0
M  V30 9 C 6.19233 -1.14111 0.2134 0
M  V30 10 C 0.0940599 0.391694 -0.946828 0
M  V30 11 O 0.210849 -0.574747 -1.73757 0
M  V30 12 N -1.05641 0.481649 -0.140488 0
M  V30 13 C -2.07478 -0.546159 -0.246796 0
M  V30 14 C -3.17963 -0.20775 0.714227 0
M  V30 15 C -4.28328 -1.23767 0.661173 0
M  V30 16 C -4.99446 -1.44055 -0.674267 0
M  V30 17 C -5.69824 -0.84841 0.522074 0
M  V30 18 N -3.64115 1.1276 0.459136 0
M  V30 19 H 0.663064 2.04985 1.09169 0
M  V30 20 H 1.36662 3.26881 0.0720756 0
M  V30 21 H 1.23286 1.96286 -1.80808 0
M  V30 22 H 2.01584 0.459731 1.52757 0
M  V30 23 H 4.20266 -0.644636 1.93166 0
M  V30 24 H 5.25016 -0.138414 -2.1227 0
M  V30 25 H 3.12713 0.9412 -2.54564 0
M  V30 26 H 6.87787 -0.354249 0.619985 0
M  V30 27 H 6.58783 -1.49989 -0.772817 0
M  V30 28 H 6.02241 -1.96742 0.927561 0
M  V30 29 H -1.1642 1.29243 0.529209 0
M  V30 30 H -2.43284 -0.532896 -1.31374 0
M  V30 31 H -1.63357 -1.54588 -0.00888903 0
M  V30 32 H -2.75769 -0.232728 1.72991 0
M  V30 33 H -4.04037 -2.20287 1.15567 0
M  V30 34 H -5.33789 -2.43637 -0.959265 0
M  V30 35 H -4.7015 -0.794836 -1.50937 0
M  V30 36 H -5.88811 0.249054 0.419925 0
M  V30 37 H -6.48421 -1.43977 1.02508 0
M  V30 38 H -3.94372 1.28502 -0.526282 0
M  V30 39 H -4.30318 1.48915 1.16225 0
M  V30 END ATOM
M  V30 BEGIN BOND
M  V30 1 1 1 2
M  V30 2 1 2 3
M  V30 3 2 3 4
M  V30 4 1 4 5
M  V30 5 2 5 6
M  V30 6 1 6 7
M  V30 7 2 7 8
M  V30 8 1 6 9
M  V30 9 1 2 10
M  V30 10 2 10 11
M  V30 11 1 10 12
M  V30 12 1 12 13
M  V30 13 1 13 14
M  V30 14 1 14 15
M  V30 15 1 15 16
M  V30 16 1 16 17
M  V30 17 1 14 18
M  V30 18 1 8 3
M  V30 19 1 17 15
M  V30 20 1 1 19
M  V30 21 1 1 20
M  V30 22 1 2 21
M  V30 23 1 4 22
M  V30 24 1 5 23
M  V30 25 1 7 24
M  V30 26 1 8 25
M  V30 27 1 9 26
M  V30 28 1 9 27
M  V30 29 1 9 28
M  V30 30 1 12 29
M  V30 31 1 13 30
M  V30 32 1 13 31
M  V30 33 1 14 32
M  V30 34 1 15 33
M  V30 35 1 16 34
M  V30 36 1 16 35
M  V30 37 1 17 36
M  V30 38 1 17 37
M  V30 39 1 18 38
M  V30 40 1 18 39
M  V30 END BOND
M  V30 END CTAB
M  END
