
     RDKit          3D

  0  0  0  0  0  0  0  0  0  0999 V3000
M  V30 BEGIN CTAB
M  V30 COUNTS 25 24 0 0 0
M  V30 BEGIN ATOM
M  V30 1 C -1.35684 1.94407 0.93052 0
M  V30 2 C -0.655629 1.51752 -0.327021 0
M  V30 3 C -0.257996 0.0590046 -0.297934 0
M  V30 4 C -1.51309 -0.759629 -0.139471 0
M  V30 5 O -2.12632 -0.59533 1.07632 0
M  V30 6 C -1.29754 -2.21226 -0.501923 0
M  V30 7 N 0.756801 -0.227161 0.657346 0
M  V30 8 C 2.02876 -0.154319 0.433308 0
M  V30 9 N 2.96616 -0.461574 1.45705 0
M  V30 10 N 2.49994 0.237215 -0.850246 0
M  V30 11 H -2.46247 1.8339 0.872174 0
M  V30 12 H -1.17857 3.0563 1.02256 0
M  V30 13 H -0.92008 1.42673 1.79323 0
M  V30 14 H -1.33814 1.73714 -1.17292 0
M  V30 15 H 0.238635 2.17394 -0.491322 0
M  V30 16 H 0.158584 -0.22233 -1.30925 0
M  V30 17 H -2.23314 -0.363889 -0.91569 0
M  V30 18 H -1.58789 -0.882103 1.84124 0
M  V30 19 H -0.764259 -2.6788 0.37091 0
M  V30 20 H -0.678257 -2.27804 -1.40241 0
M  V30 21 H -2.28262 -2.70436 -0.594226 0
M  V30 22 H 3.64888 -1.23777 1.31997 0
M  V30 23 H 3.01583 0.0545826 2.36205 0
M  V30 24 H 3.10052 1.0717 -1.02655 0
M  V30 25 H 2.23872 -0.334555 -1.68243 0
M  V30 END ATOM
M  V30 BEGIN BOND
M  V30 1 1 1 2
M  V30 2 1 2 3
M  V30 3 1 3 4
M  V30 4 1 4 5
M  V30 5 1 4 6
M  V30 6 1 3 7
M  V30 7 2 7 8 CFG=2
M  V30 8 1 8 9
M  V30 9 1 8 10
M  V30 10 1 1 11
M  V30 11 1 1 12
M  V30 12 1 1 13
M  V30 13 1 2 14
M  V30 14 1 2 15
M  V30 15 1 3 16
M  V30 16 1 4 17
M  V30 17 1 5 18
M  V30 18 1 6 19
M  V30 19 1 6 20
M  V30 20 1 6 21
M  V30 21 1 9 22
M  V30 22 1 9 23
M  V30 23 1 10 24
M  V30 24 1 10 25
M  V30 END BOND
M  V30 END CTAB
M  END
