
     RDKit          3D

  0  0  0  0  0  0  0  0  0  0999 V3000
M  V30 BEGIN CTAB
M  V30 COUNTS 14 14 0 0 0
M  V30 BEGIN ATOM
M  V30 1 N 2.26543 -0.967492 -0.026623 0
M  V30 2 C 1.01684 -0.311531 -0.00718233 0
M  V30 3 N -0.160622 -0.955952 -0.0413666 0
M  V30 4 C -1.34968 -0.326718 -0.0226709 0
M  V30 5 N -2.58308 -1.02498 -0.0594485 0
M  V30 6 N -1.30911 1.03391 0.0341537 0
M  V30 7 C -0.162133 1.72694 0.0701695 0
M  V30 8 F -0.136001 3.0863 0.126851 0
M  V30 9 C 1.04944 1.07398 0.0506275 0
M  V30 10 H 2.47711 -1.64915 -0.764104 0
M  V30 11 H 2.96256 -0.761847 0.698546 0
M  V30 12 H -3.18611 -1.02203 0.774692 0
M  V30 13 H -2.86438 -1.52578 -0.912991 0
M  V30 14 H 1.97973 1.62436 0.0793461 0
M  V30 END ATOM
M  V30 BEGIN BOND
M  V30 1 1 1 2
M  V30 2 2 2 3
M  V30 3 1 3 4
M  V30 4 1 4 5
M  V30 5 2 4 6
M  V30 6 1 6 7
M  V30 7 1 7 8
M  V30 8 2 7 9
M  V30 9 1 9 2
M  V30 10 1 1 10
M  V30 11 1 1 11
M  V30 12 1 5 12
M  V30 13 1 5 13
M  V30 14 1 9 14
M  V30 END BOND
M  V30 END CTAB
M  END
