
     RDKit          3D

  0  0  0  0  0  0  0  0  0  0999 V3000
M  V30 BEGIN CTAB
M  V30 COUNTS 165 168 0 0 0
M  V30 BEGIN ATOM
M  V30 1 C -2.89188 3.67381 0.143293 0 CFG=2
M  V30 2 C -3.3764 5.06925 0.13078 0
M  V30 3 C -2.88843 5.61132 -1.19 0 CFG=1
M  V30 4 O -1.59705 6.09757 -1.11226 0
M  V30 5 C -3.02834 4.37556 -2.04528 0
M  V30 6 N -2.39567 3.34921 -1.19452 0
M  V30 7 C -1.54302 2.30183 -1.52543 0
M  V30 8 O -1.91208 1.53929 -2.48696 0
M  V30 9 C -0.221142 1.93474 -0.894089 0 CFG=1
M  V30 10 N 0.474439 0.94837 -1.69016 0
M  V30 11 C 0.616377 -0.429826 -1.52064 0
M  V30 12 O 0.00527599 -1.17057 -2.40883 0
M  V30 13 C 1.34228 -1.20189 -0.508663 0 CFG=2
M  V30 14 C 0.610604 -1.37806 0.807306 0
M  V30 15 C -0.216794 -2.62545 0.740516 0 CFG=1
M  V30 16 O 0.535811 -3.76213 0.813222 0
M  V30 17 C -1.34787 -2.67296 1.74716 0 CFG=1
M  V30 18 N -0.858385 -2.24811 3.00007 0
M  V30 19 C 0.0732407 -2.97786 3.73045 0
M  V30 20 C -0.39215 -4.24111 4.40613 0
M  V30 21 N -0.914485 -5.27653 3.61906 0
M  V30 22 N -2.46303 -1.81193 1.28873 0
M  V30 23 C -3.21549 -1.98894 0.139707 0
M  V30 24 O -3.24477 -1.02071 -0.706083 0
M  V30 25 C -4.02167 -3.16493 -0.27467 0 CFG=2
M  V30 26 C -3.26226 -4.33762 -0.77055 0 CFG=1
M  V30 27 O -4.20149 -5.39861 -0.860523 0
M  V30 28 C -2.89926 -3.99629 -2.16685 0
M  V30 29 C -4.01877 -3.07774 -2.59418 0
M  V30 30 N -4.8251 -2.81413 -1.42262 0
M  V30 31 C -6.14168 -2.30054 -1.36467 0
M  V30 32 O -7.06442 -2.68433 -2.15503 0
M  V30 33 C -6.57507 -1.24853 -0.362171 0 CFG=1
M  V30 34 N -6.69683 -0.0441644 -1.16248 0
M  V30 35 C -6.09053 1.21362 -0.926402 0
M  V30 36 O -5.30406 1.54416 -1.91251 0
M  V30 37 C -6.26313 2.08764 0.221989 0 CFG=1
M  V30 38 N -5.09117 2.46707 0.978432 0
M  V30 39 C -3.74172 2.65129 0.770583 0
M  V30 40 O -2.99467 1.69212 1.2423 0
M  V30 41 C -7.00706 3.38134 -0.125043 0 CFG=2
M  V30 42 O -7.3084 4.01849 1.05174 0
M  V30 43 C -8.17305 3.25993 -0.994071 0 CFG=1
M  V30 44 O -7.93471 2.59861 -2.20858 0
M  V30 45 C -9.48553 2.9121 -0.444647 0
M  V30 46 C -10.554 2.94563 -1.34221 0
M  V30 47 C -11.8251 2.65235 -0.965912 0
M  V30 48 C -12.0775 2.30935 0.340423 0
M  V30 49 O -13.3874 2.01594 0.68925 0
M  V30 50 C -11.0544 2.26343 1.25693 0
M  V30 51 C -9.74527 2.57099 0.845511 0
M  V30 52 C -7.94237 -1.76073 0.114686 0 CFG=2
M  V30 53 O -8.59928 -0.845551 0.895755 0
M  V30 54 C -7.80107 -3.04013 0.876542 0
M  V30 55 C -9.09731 -3.60084 1.35768 0
M  V30 56 N -10.0198 -3.91488 0.318379 0
M  V30 57 N 2.73008 -0.77193 -0.299175 0
M  V30 58 C 3.79806 -1.63747 -0.0657615 0
M  V30 59 O 3.60661 -2.87568 -0.00705601 0
M  V30 60 C 5.18355 -1.15899 0.12372 0
M  V30 61 C 5.92151 -2.24562 0.884856 0
M  V30 62 C 7.39041 -1.78934 1.0196 0
M  V30 63 C 8.06806 -2.81117 1.84288 0
M  V30 64 C 9.51555 -2.58828 2.07054 0
M  V30 65 C 10.4613 -2.67929 0.958705 0
M  V30 66 C 10.4221 -1.82011 -0.223925 0
M  V30 67 C 10.5578 -0.349905 -0.0508968 0
M  V30 68 C 11.8644 0.0804447 0.581826 0
M  V30 69 C 13.0073 -0.369692 -0.262974 0
M  V30 70 C 11.8635 1.51036 0.985012 0
M  V30 71 C 11.6109 2.53831 -0.0412645 0
M  V30 72 C 11.6552 3.94363 0.598114 0
M  V30 73 C 12.5449 2.53224 -1.21071 0
M  V30 74 C 12.189 3.65525 -2.19456 0
M  V30 75 C 0.678273 3.19005 -0.898851 0 CFG=2
M  V30 76 C 0.84769 3.69528 -2.31892 0
M  V30 77 O 1.91124 2.93041 -0.333516 0
M  V30 78 H -1.89614 3.76543 0.728789 0
M  V30 79 H -2.8809 5.72809 0.907821 0
M  V30 80 H -4.46821 5.22424 0.141606 0
M  V30 81 H -3.60052 6.39958 -1.56573 0
M  V30 82 H -1.20816 6.27751 -1.98605 0
M  V30 83 H -2.53709 4.56872 -2.98403 0
M  V30 84 H -4.11435 4.15507 -2.13358 0
M  V30 85 H -0.308644 1.6598 0.152724 0
M  V30 86 H 0.93721 1.36521 -2.56978 0
M  V30 87 H 1.49815 -2.28917 -0.836211 0
M  V30 88 H 1.39037 -1.51707 1.57918 0
M  V30 89 H 0.0310269 -0.488234 1.11863 0
M  V30 90 H -0.670139 -2.63516 -0.305836 0
M  V30 91 H 0.641515 -4.24761 -0.0500646 0
M  V30 92 H -1.67289 -3.71439 1.81003 0
M  V30 93 H -1.5603 -1.80038 3.62465 0
M  V30 94 H 0.986683 -3.28875 3.1427 0
M  V30 95 H 0.545107 -2.30825 4.52654 0
M  V30 96 H 0.458349 -4.61953 5.05972 0
M  V30 97 H -1.15202 -3.90817 5.16582 0
M  V30 98 H -0.380231 -5.55909 2.80211 0
M  V30 99 H -1.92691 -5.31083 3.53976 0
M  V30 100 H -2.65957 -1.0041 1.92463 0
M  V30 101 H -4.73129 -3.45993 0.549447 0
M  V30 102 H -2.46459 -4.72827 -0.15253 0
M  V30 103 H -3.70419 -6.23741 -1.1295 0
M  V30 104 H -2.94225 -4.9185 -2.81169 0
M  V30 105 H -1.89367 -3.50044 -2.23439 0
M  V30 106 H -3.55109 -2.1356 -2.94479 0
M  V30 107 H -4.61002 -3.52996 -3.41743 0
M  V30 108 H -5.87829 -1.19516 0.463948 0
M  V30 109 H -7.32211 -0.187613 -2.03833 0
M  V30 110 H -7.00743 1.55596 0.894099 0
M  V30 111 H -5.41061 2.64427 2.02694 0
M  V30 112 H -6.26911 4.04957 -0.664786 0
M  V30 113 H -6.52728 4.45254 1.46497 0
M  V30 114 H -8.34362 4.34787 -1.38013 0
M  V30 115 H -8.35939 3.0015 -2.97845 0
M  V30 116 H -10.3674 3.21825 -2.39062 0
M  V30 117 H -12.6302 2.69404 -1.71104 0
M  V30 118 H -14.0672 2.68631 1.01972 0
M  V30 119 H -11.2429 1.99328 2.29454 0
M  V30 120 H -9.00371 2.50611 1.62588 0
M  V30 121 H -8.59674 -1.96306 -0.762493 0
M  V30 122 H -9.58559 -0.956377 0.83301 0
M  V30 123 H -7.2919 -3.82205 0.287998 0
M  V30 124 H -7.15494 -2.90318 1.7962 0
M  V30 125 H -8.85273 -4.56523 1.88088 0
M  V30 126 H -9.59175 -2.96371 2.12895 0
M  V30 127 H -10.9491 -3.49833 0.36021 0
M  V30 128 H -9.62567 -4.14352 -0.596135 0
M  V30 129 H 2.85426 0.263542 -0.339938 0
M  V30 130 H 5.69091 -0.952982 -0.856868 0
M  V30 131 H 5.16839 -0.254527 0.7783 0
M  V30 132 H 5.45366 -2.30767 1.89478 0
M  V30 133 H 5.86069 -3.19115 0.331726 0
M  V30 134 H 7.32963 -0.843279 1.60933 0
M  V30 135 H 7.7157 -1.6344 0.00264069 0
M  V30 136 H 7.55524 -2.80596 2.84735 0
M  V30 137 H 7.88144 -3.83758 1.38928 0
M  V30 138 H 9.82462 -3.39695 2.81624 0
M  V30 139 H 9.60357 -1.61997 2.64999 0
M  V30 140 H 10.3703 -3.76157 0.553289 0
M  V30 141 H 11.5452 -2.71758 1.33953 0
M  V30 142 H 9.6489 -2.04192 -0.994366 0
M  V30 143 H 11.3843 -2.11995 -0.822068 0
M  V30 144 H 10.5922 0.0875832 -1.09651 0
M  V30 145 H 9.69865 0.167094 0.41494 0
M  V30 146 H 11.9401 -0.495566 1.57112 0
M  V30 147 H 12.6693 -0.667497 -1.29045 0
M  V30 148 H 13.4103 -1.32782 0.172377 0
M  V30 149 H 13.84 0.368608 -0.334647 0
M  V30 150 H 12.8535 1.72108 1.49529 0
M  V30 151 H 11.1059 1.6475 1.81722 0
M  V30 152 H 10.5748 2.48601 -0.474167 0
M  V30 153 H 12.7157 4.21208 0.802988 0
M  V30 154 H 11.1065 3.91441 1.55923 0
M  V30 155 H 11.2623 4.70839 -0.0971809 0
M  V30 156 H 13.5962 2.66732 -0.965743 0
M  V30 157 H 12.4057 1.60128 -1.83082 0
M  V30 158 H 11.1043 3.66104 -2.35142 0
M  V30 159 H 12.538 4.58987 -1.72606 0
M  V30 160 H 12.7157 3.40672 -3.14516 0
M  V30 161 H 0.231797 4.01093 -0.311385 0
M  V30 162 H 0.625436 4.77967 -2.37171 0
M  V30 163 H 0.186007 3.19057 -3.02908 0
M  V30 164 H 1.92924 3.60541 -2.5919 0
M  V30 165 H 1.75956 2.56455 0.597164 0
M  V30 END ATOM
M  V30 BEGIN BOND
M  V30 1 1 1 2
M  V30 2 1 2 3
M  V30 3 1 3 4
M  V30 4 1 3 5
M  V30 5 1 5 6
M  V30 6 1 6 7
M  V30 7 2 7 8
M  V30 8 1 7 9
M  V30 9 1 9 10
M  V30 10 1 10 11
M  V30 11 2 11 12
M  V30 12 1 11 13
M  V30 13 1 13 14
M  V30 14 1 14 15
M  V30 15 1 15 16
M  V30 16 1 15 17
M  V30 17 1 17 18
M  V30 18 1 18 19
M  V30 19 1 19 20
M  V30 20 1 20 21
M  V30 21 1 17 22
M  V30 22 1 22 23
M  V30 23 2 23 24
M  V30 24 1 23 25
M  V30 25 1 25 26
M  V30 26 1 26 27
M  V30 27 1 26 28
M  V30 28 1 28 29
M  V30 29 1 29 30
M  V30 30 1 30 31
M  V30 31 2 31 32
M  V30 32 1 31 33
M  V30 33 1 33 34
M  V30 34 1 34 35
M  V30 35 2 35 36
M  V30 36 1 35 37
M  V30 37 1 37 38
M  V30 38 1 38 39
M  V30 39 2 39 40
M  V30 40 1 37 41
M  V30 41 1 41 42
M  V30 42 1 41 43
M  V30 43 1 43 44
M  V30 44 1 43 45
M  V30 45 2 45 46
M  V30 46 1 46 47
M  V30 47 2 47 48
M  V30 48 1 48 49
M  V30 49 1 48 50
M  V30 50 2 50 51
M  V30 51 1 33 52
M  V30 52 1 52 53
M  V30 53 1 52 54
M  V30 54 1 54 55
M  V30 55 1 55 56
M  V30 56 1 13 57
M  V30 57 1 57 58
M  V30 58 2 58 59
M  V30 59 1 58 60
M  V30 60 1 60 61
M  V30 61 1 61 62
M  V30 62 1 62 63
M  V30 63 1 63 64
M  V30 64 1 64 65
M  V30 65 1 65 66
M  V30 66 1 66 67
M  V30 67 1 67 68
M  V30 68 1 68 69
M  V30 69 1 68 70
M  V30 70 1 70 71
M  V30 71 1 71 72
M  V30 72 1 71 73
M  V30 73 1 73 74
M  V30 74 1 9 75
M  V30 75 1 75 76
M  V30 76 1 75 77
M  V30 77 1 6 1
M  V30 78 1 30 25
M  V30 79 1 51 45
M  V30 80 1 39 1
M  V30 81 1 1 78 CFG=1
M  V30 82 1 2 79
M  V30 83 1 2 80
M  V30 84 1 3 81 CFG=3
M  V30 85 1 4 82
M  V30 86 1 5 83
M  V30 87 1 5 84
M  V30 88 1 9 85 CFG=1
M  V30 89 1 10 86
M  V30 90 1 13 87 CFG=3
M  V30 91 1 14 88
M  V30 92 1 14 89
M  V30 93 1 15 90 CFG=3
M  V30 94 1 16 91
M  V30 95 1 17 92 CFG=1
M  V30 96 1 18 93
M  V30 97 1 19 94
M  V30 98 1 19 95
M  V30 99 1 20 96
M  V30 100 1 20 97
M  V30 101 1 21 98
M  V30 102 1 21 99
M  V30 103 1 22 100
M  V30 104 1 25 101 CFG=1
M  V30 105 1 26 102 CFG=1
M  V30 106 1 27 103
M  V30 107 1 28 104
M  V30 108 1 28 105
M  V30 109 1 29 106
M  V30 110 1 29 107
M  V30 111 1 33 108 CFG=1
M  V30 112 1 34 109
M  V30 113 1 37 110 CFG=1
M  V30 114 1 38 111
M  V30 115 1 41 112 CFG=3
M  V30 116 1 42 113
M  V30 117 1 43 114 CFG=3
M  V30 118 1 44 115
M  V30 119 1 46 116
M  V30 120 1 47 117
M  V30 121 1 49 118
M  V30 122 1 50 119
M  V30 123 1 51 120
M  V30 124 1 52 121 CFG=3
M  V30 125 1 53 122
M  V30 126 1 54 123
M  V30 127 1 54 124
M  V30 128 1 55 125
M  V30 129 1 55 126
M  V30 130 1 56 127
M  V30 131 1 56 128
M  V30 132 1 57 129
M  V30 133 1 60 130
M  V30 134 1 60 131
M  V30 135 1 61 132
M  V30 136 1 61 133
M  V30 137 1 62 134
M  V30 138 1 62 135
M  V30 139 1 63 136
M  V30 140 1 63 137
M  V30 141 1 64 138
M  V30 142 1 64 139
M  V30 143 1 65 140
M  V30 144 1 65 141
M  V30 145 1 66 142
M  V30 146 1 66 143
M  V30 147 1 67 144
M  V30 148 1 67 145
M  V30 149 1 68 146
M  V30 150 1 69 147
M  V30 151 1 69 148
M  V30 152 1 69 149
M  V30 153 1 70 150
M  V30 154 1 70 151
M  V30 155 1 71 152
M  V30 156 1 72 153
M  V30 157 1 72 154
M  V30 158 1 72 155
M  V30 159 1 73 156
M  V30 160 1 73 157
M  V30 161 1 74 158
M  V30 162 1 74 159
M  V30 163 1 74 160
M  V30 164 1 75 161 CFG=1
M  V30 165 1 76 162
M  V30 166 1 76 163
M  V30 167 1 76 164
M  V30 168 1 77 165
M  V30 END BOND
M  V30 END CTAB
M  END
