
     RDKit          3D

  0  0  0  0  0  0  0  0  0  0999 V3000
M  V30 BEGIN CTAB
M  V30 COUNTS 19 19 0 0 0
M  V30 BEGIN ATOM
M  V30 1 F 3.94126 1.30494 0.395034 0
M  V30 2 C 2.65724 0.964664 0.773545 0
M  V30 3 O 1.918 0.634947 -0.379479 0
M  V30 4 C 0.585589 0.247488 -0.3384 0
M  V30 5 N -0.402936 1.14513 -0.423754 0
M  V30 6 C -1.71307 0.824803 -0.389307 0
M  V30 7 N -2.74234 1.79668 -0.481813 0
M  V30 8 C -2.06201 -0.510343 -0.257986 0
M  V30 9 C -1.10016 -1.48854 -0.164697 0
M  V30 10 C 0.231958 -1.08051 -0.207773 0
M  V30 11 N 1.26528 -2.04176 -0.116553 0
M  V30 12 F 2.09886 2.04064 1.46215 0
M  V30 13 F 2.72831 -0.0733549 1.68286 0
M  V30 14 H -2.5548 2.68762 -0.973876 0
M  V30 15 H -3.68307 1.6338 -0.0654951 0
M  V30 16 H -3.11868 -0.757025 -0.231346 0
M  V30 17 H -1.39584 -2.51788 -0.0633819 0
M  V30 18 H 1.89925 -2.16737 -0.935262 0
M  V30 19 H 1.44716 -2.64393 0.715534 0
M  V30 END ATOM
M  V30 BEGIN BOND
M  V30 1 1 1 2
M  V30 2 1 2 3
M  V30 3 1 3 4
M  V30 4 2 4 5
M  V30 5 1 5 6
M  V30 6 1 6 7
M  V30 7 2 6 8
M  V30 8 1 8 9
M  V30 9 2 9 10
M  V30 10 1 10 11
M  V30 11 1 2 12
M  V30 12 1 2 13
M  V30 13 1 10 4
M  V30 14 1 7 14
M  V30 15 1 7 15
M  V30 16 1 8 16
M  V30 17 1 9 17
M  V30 18 1 11 18
M  V30 19 1 11 19
M  V30 END BOND
M  V30 END CTAB
M  END
