
     RDKit          3D

  0  0  0  0  0  0  0  0  0  0999 V3000
M  V30 BEGIN CTAB
M  V30 COUNTS 47 49 0 0 0
M  V30 BEGIN ATOM
M  V30 1 C -3.80293 -4.03299 0.980258 0
M  V30 2 C -2.57507 -3.17222 0.673965 0
M  V30 3 O -2.35756 -3.26358 -0.671274 0
M  V30 4 C -1.27116 -2.54156 -1.15443 0
M  V30 5 C -1.38959 -1.0778 -0.921628 0
M  V30 6 N -2.58998 -0.509109 -0.922076 0
M  V30 7 C -2.4001 0.796461 -0.694762 0
M  V30 8 C -3.33802 1.80575 -0.607519 0
M  V30 9 N -4.72607 1.53612 -0.75803 0
M  V30 10 N -2.87314 3.04391 -0.375074 0
M  V30 11 C -1.55956 3.27851 -0.236033 0
M  V30 12 C -1.178 4.60173 -0.00244837 0
M  V30 13 C 0.161632 4.87082 0.138504 0
M  V30 14 C 1.0868 3.86361 0.0508104 0
M  V30 15 C 0.701612 2.54169 -0.182713 0
M  V30 16 C -0.599335 2.25136 -0.324055 0
M  V30 17 C -1.04146 0.982571 -0.559103 0
M  V30 18 N -0.382796 -0.16953 -0.695084 0
M  V30 19 C 0.977507 -0.538343 -0.651372 0
M  V30 20 C 1.52259 -0.968911 0.658107 0
M  V30 21 O 2.85712 -1.31203 0.580274 0
M  V30 22 C 3.72011 -0.321001 0.191153 0
M  V30 23 C 5.12237 -0.946197 0.206308 0
M  V30 24 N 6.11588 0.0329766 -0.194825 0
M  V30 25 H -3.50338 -5.02692 1.37606 0
M  V30 26 H -4.46702 -3.55063 1.71429 0
M  V30 27 H -4.40117 -4.22159 0.0619368 0
M  V30 28 H -1.69057 -3.64124 1.19669 0
M  V30 29 H -2.70255 -2.15043 1.05131 0
M  V30 30 H -1.17834 -2.80669 -2.21922 0
M  V30 31 H -0.374035 -2.96983 -0.663094 0
M  V30 32 H -5.21192 1.05085 0.0178911 0
M  V30 33 H -5.24036 1.80792 -1.60171 0
M  V30 34 H -1.92062 5.37841 0.0630816 0
M  V30 35 H 0.483143 5.89828 0.32108 0
M  V30 36 H 2.13563 4.08492 0.162793 0
M  V30 37 H 1.45678 1.86212 -0.233521 0
M  V30 38 H 1.68011 -0.0277775 -1.35652 0
M  V30 39 H 1.05731 -1.53274 -1.22503 0
M  V30 40 H 0.982906 -1.89641 0.974889 0
M  V30 41 H 1.43861 -0.256231 1.48608 0
M  V30 42 H 3.77118 0.528329 0.920218 0
M  V30 43 H 3.58847 0.0259956 -0.844052 0
M  V30 44 H 5.31537 -1.34549 1.21857 0
M  V30 45 H 5.11638 -1.80672 -0.495389 0
M  V30 46 H 6.83362 -0.504431 -0.765585 0
M  V30 47 H 6.64963 0.348046 0.668001 0
M  V30 END ATOM
M  V30 BEGIN BOND
M  V30 1 1 1 2
M  V30 2 1 2 3
M  V30 3 1 3 4
M  V30 4 1 4 5
M  V30 5 2 5 6
M  V30 6 1 6 7
M  V30 7 2 7 8
M  V30 8 1 8 9
M  V30 9 1 8 10
M  V30 10 2 10 11
M  V30 11 1 11 12
M  V30 12 2 12 13
M  V30 13 1 13 14
M  V30 14 2 14 15
M  V30 15 1 15 16
M  V30 16 2 16 17
M  V30 17 1 17 18
M  V30 18 1 18 19
M  V30 19 1 19 20
M  V30 20 1 20 21
M  V30 21 1 21 22
M  V30 22 1 22 23
M  V30 23 1 23 24
M  V30 24 1 18 5
M  V30 25 1 17 7
M  V30 26 1 16 11
M  V30 27 1 1 25
M  V30 28 1 1 26
M  V30 29 1 1 27
M  V30 30 1 2 28
M  V30 31 1 2 29
M  V30 32 1 4 30
M  V30 33 1 4 31
M  V30 34 1 9 32
M  V30 35 1 9 33
M  V30 36 1 12 34
M  V30 37 1 13 35
M  V30 38 1 14 36
M  V30 39 1 15 37
M  V30 40 1 19 38
M  V30 41 1 19 39
M  V30 42 1 20 40
M  V30 43 1 20 41
M  V30 44 1 22 42
M  V30 45 1 22 43
M  V30 46 1 23 44
M  V30 47 1 23 45
M  V30 48 1 24 46
M  V30 49 1 24 47
M  V30 END BOND
M  V30 END CTAB
M  END
