
     RDKit          3D

  0  0  0  0  0  0  0  0  0  0999 V3000
M  V30 BEGIN CTAB
M  V30 COUNTS 30 31 0 0 0
M  V30 BEGIN ATOM
M  V30 1 N 5.14276 -0.187686 0.424898 0
M  V30 2 C 3.75568 -0.236554 0.0588215 0
M  V30 3 N 3.22949 -0.749071 -1.07404 0
M  V30 4 O 1.93183 -0.601748 -1.02805 0
M  V30 5 C 1.57683 -0.0114883 0.0911788 0
M  V30 6 N 2.71951 0.213119 0.763675 0
M  V30 7 C 0.208395 0.331054 0.516356 0 CFG=1
M  V30 8 C -0.393721 1.36958 -0.423883 0
M  V30 9 C -1.73986 1.73857 0.13883 0
M  V30 10 C -2.79207 1.09418 -0.725119 0
M  V30 11 C -2.94585 -0.341686 -0.251597 0
M  V30 12 C -1.6273 -1.05781 -0.49331 0
M  V30 13 C -0.673245 -0.876903 0.659526 0 CFG=1
M  V30 14 N 0.125852 -2.08031 0.785538 0
M  V30 15 H 5.695 -1.03112 0.672006 0
M  V30 16 H 5.6292 0.726487 0.447936 0
M  V30 17 H 0.258821 0.820279 1.5109 0
M  V30 18 H 0.291677 2.25416 -0.373421 0
M  V30 19 H -0.410007 1.04668 -1.46509 0
M  V30 20 H -1.8342 2.83813 0.193555 0
M  V30 21 H -1.88253 1.36095 1.17901 0
M  V30 22 H -3.73059 1.6587 -0.651694 0
M  V30 23 H -2.47787 1.09814 -1.80225 0
M  V30 24 H -3.13966 -0.292852 0.83864 0
M  V30 25 H -3.78292 -0.841203 -0.781019 0
M  V30 26 H -1.19094 -0.837606 -1.47339 0
M  V30 27 H -1.89232 -2.15554 -0.520109 0
M  V30 28 H -1.30935 -0.79739 1.58142 0
M  V30 29 H 0.964615 -1.94493 1.36364 0
M  V30 30 H 0.292758 -2.50613 -0.136303 0
M  V30 END ATOM
M  V30 BEGIN BOND
M  V30 1 1 1 2
M  V30 2 2 2 3
M  V30 3 1 3 4
M  V30 4 1 4 5
M  V30 5 2 5 6
M  V30 6 1 5 7
M  V30 7 1 7 8
M  V30 8 1 8 9
M  V30 9 1 9 10
M  V30 10 1 10 11
M  V30 11 1 11 12
M  V30 12 1 12 13
M  V30 13 1 13 14
M  V30 14 1 6 2
M  V30 15 1 13 7
M  V30 16 1 1 15
M  V30 17 1 1 16
M  V30 18 1 7 17 CFG=1
M  V30 19 1 8 18
M  V30 20 1 8 19
M  V30 21 1 9 20
M  V30 22 1 9 21
M  V30 23 1 10 22
M  V30 24 1 10 23
M  V30 25 1 11 24
M  V30 26 1 11 25
M  V30 27 1 12 26
M  V30 28 1 12 27
M  V30 29 1 13 28 CFG=1
M  V30 30 1 14 29
M  V30 31 1 14 30
M  V30 END BOND
M  V30 END CTAB
M  END
