
     RDKit          3D

  0  0  0  0  0  0  0  0  0  0999 V3000
M  V30 BEGIN CTAB
M  V30 COUNTS 19 19 0 0 0
M  V30 BEGIN ATOM
M  V30 1 C -1.62199 1.04911 -0.0673386 0
M  V30 2 C -0.398539 0.222856 -0.0103126 0
M  V30 3 C 0.813015 0.870389 0.0315969 0
M  V30 4 N 0.88902 2.28926 0.0205546 0
M  V30 5 C 1.98485 0.131146 0.0856758 0
M  V30 6 C 1.92515 -1.25063 0.0969996 0
M  V30 7 C 0.681176 -1.86253 0.0534439 0
M  V30 8 C -0.474882 -1.15297 0.000284896 0
M  V30 9 N -1.77251 -1.75282 -0.0455493 0
M  V30 10 H -1.62702 1.55525 -1.07551 0
M  V30 11 H -1.64665 1.84883 0.676957 0
M  V30 12 H -2.55194 0.455425 -0.0288988 0
M  V30 13 H 1.78435 2.76732 0.257849 0
M  V30 14 H 0.0797011 2.89094 -0.217324 0
M  V30 15 H 2.95898 0.61375 0.119744 0
M  V30 16 H 2.85305 -1.78804 0.139348 0
M  V30 17 H 0.6268 -2.94555 0.0620428 0
M  V30 18 H -2.34516 -1.78571 0.834992 0
M  V30 19 H -2.15739 -2.15602 -0.934555 0
M  V30 END ATOM
M  V30 BEGIN BOND
M  V30 1 1 1 2
M  V30 2 2 2 3
M  V30 3 1 3 4
M  V30 4 1 3 5
M  V30 5 2 5 6
M  V30 6 1 6 7
M  V30 7 2 7 8
M  V30 8 1 8 9
M  V30 9 1 8 2
M  V30 10 1 1 10
M  V30 11 1 1 11
M  V30 12 1 1 12
M  V30 13 1 4 13
M  V30 14 1 4 14
M  V30 15 1 5 15
M  V30 16 1 6 16
M  V30 17 1 7 17
M  V30 18 1 9 18
M  V30 19 1 9 19
M  V30 END BOND
M  V30 END CTAB
M  END
