
     RDKit          3D

  0  0  0  0  0  0  0  0  0  0999 V3000
M  V30 BEGIN CTAB
M  V30 COUNTS 20 20 0 0 0
M  V30 BEGIN ATOM
M  V30 1 N 3.44704 -0.747662 1.51491 0
M  V30 2 C 2.88008 -0.24431 0.631534 0
M  V30 3 C 2.18039 0.358461 -0.480878 0
M  V30 4 C 0.741649 0.548572 -0.176696 0
M  V30 5 C 0.227042 1.79561 0.138612 0
M  V30 6 C -1.10974 1.96489 0.421111 0
M  V30 7 Cl -1.73631 3.57149 0.823575 0
M  V30 8 C -1.93461 0.874169 0.38664 0
M  V30 9 C -1.43768 -0.39482 0.0713173 0
M  V30 10 C -0.0971339 -0.5407 -0.208256 0
M  V30 11 N 0.388737 -1.85508 -0.532427 0
M  V30 12 N -2.2738 -1.52888 0.0315073 0
M  V30 13 H 2.26906 -0.253365 -1.38731 0
M  V30 14 H 2.58498 1.37131 -0.7453 0
M  V30 15 H 0.870822 2.68201 0.173291 0
M  V30 16 H -2.98543 0.997466 0.607267 0
M  V30 17 H 0.996805 -2.02145 -1.36452 0
M  V30 18 H 0.148505 -2.68256 0.0544798 0
M  V30 19 H -2.34685 -2.14251 0.859926 0
M  V30 20 H -2.81356 -1.75265 -0.818783 0
M  V30 END ATOM
M  V30 BEGIN BOND
M  V30 1 3 1 2
M  V30 2 1 2 3
M  V30 3 1 3 4
M  V30 4 2 4 5
M  V30 5 1 5 6
M  V30 6 1 6 7
M  V30 7 2 6 8
M  V30 8 1 8 9
M  V30 9 2 9 10
M  V30 10 1 10 11
M  V30 11 1 9 12
M  V30 12 1 10 4
M  V30 13 1 3 13
M  V30 14 1 3 14
M  V30 15 1 5 15
M  V30 16 1 8 16
M  V30 17 1 11 17
M  V30 18 1 11 18
M  V30 19 1 12 19
M  V30 20 1 12 20
M  V30 END BOND
M  V30 END CTAB
M  END
