
     RDKit          3D

  0  0  0  0  0  0  0  0  0  0999 V3000
M  V30 BEGIN CTAB
M  V30 COUNTS 23 23 0 0 0
M  V30 BEGIN ATOM
M  V30 1 C 3.53962 0.600517 -0.263969 0
M  V30 2 C 2.7569 -0.649007 -0.570998 0
M  V30 3 C 1.37426 -0.425569 -0.110284 0
M  V30 4 N 0.928637 0.803881 0.264389 0
M  V30 5 C -0.275148 1.07114 0.527708 0
M  V30 6 C -1.26551 0.132076 0.480596 0
M  V30 7 C -2.67393 0.49836 0.656791 0
M  V30 8 N -2.78019 1.66061 -0.311994 0
M  V30 9 C -0.909474 -1.13528 0.136058 0
M  V30 10 N -1.73908 -2.25319 0.181698 0
M  V30 11 N 0.407074 -1.34063 -0.158852 0
M  V30 12 H 3.18486 1.06918 0.70126 0
M  V30 13 H 3.50209 1.37761 -1.04 0
M  V30 14 H 4.60081 0.269219 -0.0288937 0
M  V30 15 H 2.76242 -0.69481 -1.71604 0
M  V30 16 H 3.21749 -1.5439 -0.201391 0
M  V30 17 H -0.603207 2.1341 0.745487 0
M  V30 18 H -2.69275 1.09526 1.63133 0
M  V30 19 H -3.43314 -0.214841 0.570207 0
M  V30 20 H -3.73505 1.55383 -0.792064 0
M  V30 21 H -2.12552 1.32728 -1.15317 0
M  V30 22 H -1.79197 -2.76163 1.09012 0
M  V30 23 H -2.2492 -2.5742 -0.63799 0
M  V30 END ATOM
M  V30 BEGIN BOND
M  V30 1 1 1 2
M  V30 2 1 2 3
M  V30 3 2 3 4
M  V30 4 1 4 5
M  V30 5 2 5 6
M  V30 6 1 6 7
M  V30 7 1 7 8
M  V30 8 1 6 9
M  V30 9 1 9 10
M  V30 10 2 9 11
M  V30 11 1 11 3
M  V30 12 1 1 12
M  V30 13 1 1 13
M  V30 14 1 1 14
M  V30 15 1 2 15
M  V30 16 1 2 16
M  V30 17 1 5 17
M  V30 18 1 7 18
M  V30 19 1 7 19
M  V30 20 1 8 20
M  V30 21 1 8 21
M  V30 22 1 10 22
M  V30 23 1 10 23
M  V30 END BOND
M  V30 END CTAB
M  END
