
     RDKit          3D

  0  0  0  0  0  0  0  0  0  0999 V3000
M  V30 BEGIN CTAB
M  V30 COUNTS 32 33 0 0 0
M  V30 BEGIN ATOM
M  V30 1 N 5.53923 0.120902 -1.00029 0
M  V30 2 C 4.2414 0.335487 -0.497944 0
M  V30 3 C 3.81708 1.52344 0.108442 0
M  V30 4 C 2.49856 1.34505 0.461994 0
M  V30 5 N 2.13158 0.104188 0.0892087 0
M  V30 6 N 3.17305 -0.48192 -0.477633 0
M  V30 7 C 0.819887 -0.424325 0.302085 0 CFG=2
M  V30 8 O 0.542537 -1.57019 -0.413671 0
M  V30 9 C -0.650413 -2.09623 0.0929609 0
M  V30 10 C -1.86919 -1.44109 -0.454985 0
M  V30 11 N -2.36297 -0.359182 0.357862 0
M  V30 12 C -1.35082 0.504566 0.869582 0
M  V30 13 C -0.204703 0.621744 -0.109927 0
M  V30 14 S -3.54183 0.565087 -0.460782 0
M  V30 15 O -3.03829 1.2481 -1.67682 0
M  V30 16 O -4.03422 1.62688 0.511543 0
M  V30 17 N -4.92003 -0.40716 -0.864684 0
M  V30 18 H 6.23669 -0.365992 -0.423644 0
M  V30 19 H 5.78452 0.451884 -1.94174 0
M  V30 20 H 4.4072 2.41357 0.270727 0
M  V30 21 H 1.89647 2.11377 0.959742 0
M  V30 22 H 0.712741 -0.667168 1.37827 0
M  V30 23 H -0.6375 -2.00392 1.18844 0
M  V30 24 H -0.660404 -3.18875 -0.139991 0
M  V30 25 H -2.6883 -2.22064 -0.459336 0
M  V30 26 H -1.77247 -1.15452 -1.5384 0
M  V30 27 H -0.995778 0.190663 1.87789 0
M  V30 28 H -1.75281 1.54589 0.999328 0
M  V30 29 H -0.533107 0.419136 -1.15202 0
M  V30 30 H 0.232581 1.64083 -0.121536 0
M  V30 31 H -5.52014 -0.48705 0.00245188 0
M  V30 32 H -5.50056 0.0969549 -1.56694 0
M  V30 END ATOM
M  V30 BEGIN BOND
M  V30 1 1 1 2
M  V30 2 1 2 3
M  V30 3 2 3 4
M  V30 4 1 4 5
M  V30 5 1 5 6
M  V30 6 1 5 7
M  V30 7 1 7 8
M  V30 8 1 8 9
M  V30 9 1 9 10
M  V30 10 1 10 11
M  V30 11 1 11 12
M  V30 12 1 12 13
M  V30 13 1 11 14
M  V30 14 2 14 15
M  V30 15 2 14 16
M  V30 16 1 14 17
M  V30 17 2 6 2
M  V30 18 1 13 7
M  V30 19 1 1 18
M  V30 20 1 1 19
M  V30 21 1 3 20
M  V30 22 1 4 21
M  V30 23 1 7 22 CFG=1
M  V30 24 1 9 23
M  V30 25 1 9 24
M  V30 26 1 10 25
M  V30 27 1 10 26
M  V30 28 1 12 27
M  V30 29 1 12 28
M  V30 30 1 13 29
M  V30 31 1 13 30
M  V30 32 1 17 31
M  V30 33 1 17 32
M  V30 END BOND
M  V30 END CTAB
M  END
