
     RDKit          3D

  0  0  0  0  0  0  0  0  0  0999 V3000
M  V30 BEGIN CTAB
M  V30 COUNTS 21 21 0 0 0
M  V30 BEGIN ATOM
M  V30 1 C -2.68567 -0.337121 -0.022945 0
M  V30 2 C -1.21812 -0.585556 0.0223628 0
M  V30 3 C -0.740842 -1.89608 0.13854 0
M  V30 4 N 0.595011 -2.08282 0.176522 0
M  V30 5 C 1.48935 -1.08381 0.109229 0
M  V30 6 C 0.994548 0.214354 -0.00622274 0
M  V30 7 C -0.352346 0.475924 -0.0505668 0
M  V30 8 C -0.837898 1.86351 -0.173229 0
M  V30 9 N 1.96307 1.24109 -0.0745509 0
M  V30 10 N 2.87527 -1.36071 0.155478 0
M  V30 11 H -3.23851 -1.28651 -0.0597724 0
M  V30 12 H -2.99106 0.200175 0.904762 0
M  V30 13 H -2.88747 0.260168 -0.94289 0
M  V30 14 H -1.4403 -2.7221 0.194875 0
M  V30 15 H -0.453488 2.38904 -1.06753 0
M  V30 16 H -0.537217 2.47398 0.728168 0
M  V30 17 H -1.94481 1.91212 -0.191089 0
M  V30 18 H 1.92584 1.90286 -0.868553 0
M  V30 19 H 2.70916 1.36442 0.631258 0
M  V30 20 H 3.51127 -1.21772 -0.646509 0
M  V30 21 H 3.26421 -1.7252 1.04267 0
M  V30 END ATOM
M  V30 BEGIN BOND
M  V30 1 1 1 2
M  V30 2 2 2 3
M  V30 3 1 3 4
M  V30 4 2 4 5
M  V30 5 1 5 6
M  V30 6 2 6 7
M  V30 7 1 7 8
M  V30 8 1 6 9
M  V30 9 1 5 10
M  V30 10 1 7 2
M  V30 11 1 1 11
M  V30 12 1 1 12
M  V30 13 1 1 13
M  V30 14 1 3 14
M  V30 15 1 8 15
M  V30 16 1 8 16
M  V30 17 1 8 17
M  V30 18 1 9 18
M  V30 19 1 9 19
M  V30 20 1 10 20
M  V30 21 1 10 21
M  V30 END BOND
M  V30 END CTAB
M  END
