
     RDKit          3D

  0  0  0  0  0  0  0  0  0  0999 V3000
M  V30 BEGIN CTAB
M  V30 COUNTS 28 29 0 0 0
M  V30 BEGIN ATOM
M  V30 1 N -5.41268 0.398791 -0.944845 0
M  V30 2 N -4.07136 0.281242 -0.692054 0
M  V30 3 C -2.81134 0.61824 -0.955245 0
M  V30 4 O -2.58433 1.5418 -1.84662 0
M  V30 5 C -1.61008 0.037531 -0.319383 0
M  V30 6 C -1.76093 -0.998454 0.608944 0
M  V30 7 N -0.699705 -1.51381 1.23422 0
M  V30 8 C 0.557254 -1.07527 1.01196 0
M  V30 9 C 0.712493 -0.037604 0.0837698 0
M  V30 10 C -0.375976 0.531022 -0.59191 0
M  V30 11 N -0.0523678 1.53204 -1.54777 0
M  V30 12 C 2.01416 0.386829 -0.125073 0
M  V30 13 C 3.11106 -0.12074 0.492117 0
M  V30 14 C 2.93028 -1.12151 1.38256 0
M  V30 15 C 1.64531 -1.60968 1.64997 0
M  V30 16 C 4.48357 0.393724 0.318965 0
M  V30 17 F 5.20322 -0.401806 -0.558961 0
M  V30 18 F 4.56142 1.67806 -0.110691 0
M  V30 19 F 5.11613 0.215988 1.55551 0
M  V30 20 H -5.91363 -0.449484 -1.23804 0
M  V30 21 H -5.93142 0.815356 -0.0862928 0
M  V30 22 H -4.05382 -0.496158 0.196903 0
M  V30 23 H -2.69793 -1.46642 0.873504 0
M  V30 24 H 0.658893 2.31126 -1.33823 0
M  V30 25 H -0.473704 1.51009 -2.49357 0
M  V30 26 H 2.20319 1.18145 -0.83675 0
M  V30 27 H 3.75995 -1.61287 1.93837 0
M  V30 28 H 1.49235 -2.43361 2.33866 0
M  V30 END ATOM
M  V30 BEGIN BOND
M  V30 1 1 1 2
M  V30 2 1 2 3
M  V30 3 2 3 4
M  V30 4 1 3 5
M  V30 5 2 5 6
M  V30 6 1 6 7
M  V30 7 2 7 8
M  V30 8 1 8 9
M  V30 9 2 9 10
M  V30 10 1 10 11
M  V30 11 1 9 12
M  V30 12 2 12 13
M  V30 13 1 13 14
M  V30 14 2 14 15
M  V30 15 1 13 16
M  V30 16 1 16 17
M  V30 17 1 16 18
M  V30 18 1 16 19
M  V30 19 1 10 5
M  V30 20 1 15 8
M  V30 21 1 1 20
M  V30 22 1 1 21
M  V30 23 1 2 22
M  V30 24 1 6 23
M  V30 25 1 11 24
M  V30 26 1 11 25
M  V30 27 1 12 26
M  V30 28 1 14 27
M  V30 29 1 15 28
M  V30 END BOND
M  V30 END CTAB
M  END
