
     RDKit          3D

  0  0  0  0  0  0  0  0  0  0999 V3000
M  V30 BEGIN CTAB
M  V30 COUNTS 22 22 0 0 0
M  V30 BEGIN ATOM
M  V30 1 N -4.1455 -1.07226 0.209168 0
M  V30 2 C -2.74502 -0.728419 0.429062 0
M  V30 3 C -2.29797 0.361446 -0.515719 0
M  V30 4 N -0.932016 0.748091 -0.344796 0
M  V30 5 C 0.146815 -0.136623 -0.521026 0
M  V30 6 O -0.111181 -1.32195 -0.848073 0
M  V30 7 C 1.54883 0.336312 -0.321209 0
M  V30 8 C 1.83225 1.62981 0.036382 0
M  V30 9 S 3.53532 1.61175 0.121915 0
M  V30 10 C 3.7883 -0.0224764 -0.297465 0
M  V30 11 N 2.56529 -0.47213 -0.481404 0
M  V30 12 N 5.03978 -0.750471 -0.423899 0
M  V30 13 H -4.69494 -0.983891 1.06941 0
M  V30 14 H -4.52348 -0.539325 -0.600158 0
M  V30 15 H -2.63556 -0.404934 1.48931 0
M  V30 16 H -2.18974 -1.65932 0.321594 0
M  V30 17 H -2.48654 -0.0209034 -1.56466 0
M  V30 18 H -2.97495 1.24854 -0.450845 0
M  V30 19 H -0.739258 1.73611 -0.0762937 0
M  V30 20 H 1.11446 2.45316 0.216384 0
M  V30 21 H 5.12259 -1.34406 -1.25629 0
M  V30 22 H 5.7825 -0.668453 0.277701 0
M  V30 END ATOM
M  V30 BEGIN BOND
M  V30 1 1 1 2
M  V30 2 1 2 3
M  V30 3 1 3 4
M  V30 4 1 4 5
M  V30 5 2 5 6
M  V30 6 1 5 7
M  V30 7 2 7 8
M  V30 8 1 8 9
M  V30 9 1 9 10
M  V30 10 2 10 11
M  V30 11 1 10 12
M  V30 12 1 11 7
M  V30 13 1 1 13
M  V30 14 1 1 14
M  V30 15 1 2 15
M  V30 16 1 2 16
M  V30 17 1 3 17
M  V30 18 1 3 18
M  V30 19 1 4 19
M  V30 20 1 8 20
M  V30 21 1 12 21
M  V30 22 1 12 22
M  V30 END BOND
M  V30 END CTAB
M  END
