
     RDKit          3D

  0  0  0  0  0  0  0  0  0  0999 V3000
M  V30 BEGIN CTAB
M  V30 COUNTS 38 39 0 0 0
M  V30 BEGIN ATOM
M  V30 1 C 6.39103 -0.97538 -0.304834 0
M  V30 2 C 4.99003 -0.710882 0.232068 0
M  V30 3 O 4.86726 -0.660156 1.4762 0
M  V30 4 N 3.97313 -0.549481 -0.707093 0
M  V30 5 C 2.59336 -0.297792 -0.470922 0
M  V30 6 C 1.73949 -0.0462335 -1.55653 0
M  V30 7 C 0.405418 0.197431 -1.4176 0
M  V30 8 C -0.171205 0.206928 -0.179978 0
M  V30 9 C 0.641207 -0.0362365 0.898968 0
M  V30 10 C 2.01226 -0.288039 0.771826 0
M  V30 11 N -1.56425 0.456657 0.0245489 0
M  V30 12 C -1.93881 1.81503 0.216217 0
M  V30 13 N -0.929054 2.84659 0.196235 0
M  V30 14 N -3.1686 2.16046 0.410068 0
M  V30 15 C -4.22201 1.17589 0.440594 0
M  V30 16 N -5.56128 1.58847 0.655588 0
M  V30 17 N -3.87313 -0.0273956 0.268604 0
M  V30 18 C -2.55882 -0.558204 0.044307 0
M  V30 19 C -2.59952 -1.19754 -1.34475 0
M  V30 20 C -2.32776 -1.60486 1.1107 0
M  V30 21 H 7.11188 -0.467762 0.376829 0
M  V30 22 H 6.50181 -0.53744 -1.31214 0
M  V30 23 H 6.55241 -2.07269 -0.284789 0
M  V30 24 H 4.27843 -0.628948 -1.73081 0
M  V30 25 H 2.23151 -0.0599963 -2.53291 0
M  V30 26 H -0.192287 0.383053 -2.29494 0
M  V30 27 H 0.250814 -0.0445745 1.9184 0
M  V30 28 H 2.59973 -0.477696 1.67121 0
M  V30 29 H -0.891733 3.51123 0.994025 0
M  V30 30 H -0.239493 2.95953 -0.571314 0
M  V30 31 H -5.81924 2.5679 0.457253 0
M  V30 32 H -6.27067 0.925331 1.00434 0
M  V30 33 H -1.74264 -1.87356 -1.50107 0
M  V30 34 H -2.49798 -0.369184 -2.0694 0
M  V30 35 H -3.5785 -1.6752 -1.48564 0
M  V30 36 H -3.17261 -2.3328 1.02892 0
M  V30 37 H -2.41258 -1.11858 2.08584 0
M  V30 38 H -1.40756 -2.18386 0.956851 0
M  V30 END ATOM
M  V30 BEGIN BOND
M  V30 1 1 1 2
M  V30 2 2 2 3
M  V30 3 1 2 4
M  V30 4 1 4 5
M  V30 5 2 5 6
M  V30 6 1 6 7
M  V30 7 2 7 8
M  V30 8 1 8 9
M  V30 9 2 9 10
M  V30 10 1 8 11
M  V30 11 1 11 12
M  V30 12 1 12 13
M  V30 13 2 12 14
M  V30 14 1 14 15
M  V30 15 1 15 16
M  V30 16 2 15 17
M  V30 17 1 17 18
M  V30 18 1 18 19
M  V30 19 1 18 20
M  V30 20 1 10 5
M  V30 21 1 18 11
M  V30 22 1 1 21
M  V30 23 1 1 22
M  V30 24 1 1 23
M  V30 25 1 4 24
M  V30 26 1 6 25
M  V30 27 1 7 26
M  V30 28 1 9 27
M  V30 29 1 10 28
M  V30 30 1 13 29
M  V30 31 1 13 30
M  V30 32 1 16 31
M  V30 33 1 16 32
M  V30 34 1 19 33
M  V30 35 1 19 34
M  V30 36 1 19 35
M  V30 37 1 20 36
M  V30 38 1 20 37
M  V30 39 1 20 38
M  V30 END BOND
M  V30 END CTAB
M  END
