
     RDKit          3D

  0  0  0  0  0  0  0  0  0  0999 V3000
M  V30 BEGIN CTAB
M  V30 COUNTS 42 43 0 0 0
M  V30 BEGIN ATOM
M  V30 1 C -3.83694 -1.07716 -2.75186 0
M  V30 2 O -4.19724 -1.28678 -1.42287 0
M  V30 3 C -3.48676 -0.749755 -0.341668 0
M  V30 4 C -2.3769 0.0244265 -0.58168 0
M  V30 5 C -1.62509 0.588111 0.42659 0
M  V30 6 C -2.03788 0.341072 1.7337 0
M  V30 7 C -3.15135 -0.434798 1.99892 0
M  V30 8 C -3.88137 -0.984203 0.959056 0
M  V30 9 O -4.98806 -1.7573 1.16498 0
M  V30 10 C -5.5711 -2.1274 2.37185 0
M  V30 11 F -5.69833 -3.49321 2.52199 0
M  V30 12 F -6.86104 -1.57968 2.38621 0
M  V30 13 C -0.439692 1.41558 0.206463 0
M  V30 14 N 0.803721 0.654172 0.190311 0
M  V30 15 C 1.84951 1.60815 -0.030137 0
M  V30 16 C 3.21 1.07134 -0.0416494 0
M  V30 17 N 4.18673 1.92583 -0.465988 0
M  V30 18 C 5.4768 1.56571 -0.521072 0
M  V30 19 N 6.43617 2.52818 -0.97959 0
M  V30 20 N 5.84324 0.336157 -0.153985 0
M  V30 21 C 4.89184 -0.523912 0.268808 0
M  V30 22 N 3.60671 -0.141998 0.315783 0
M  V30 23 N 5.30718 -1.83257 0.656081 0
M  V30 24 C 0.709991 -0.196782 -1.00914 0
M  V30 25 H -2.75287 -1.12766 -2.95209 0
M  V30 26 H -4.26735 -0.139396 -3.17739 0
M  V30 27 H -4.31423 -1.90453 -3.35405 0
M  V30 28 H -2.04826 0.222672 -1.59505 0
M  V30 29 H -1.46585 0.77159 2.54722 0
M  V30 30 H -3.43117 -0.597162 3.03558 0
M  V30 31 H -5.0829 -1.75038 3.28272 0
M  V30 32 H -0.505496 2.00918 -0.72382 0
M  V30 33 H -0.350364 2.16218 1.03957 0
M  V30 34 H 1.8035 2.41406 0.758136 0
M  V30 35 H 1.69975 2.15795 -0.995782 0
M  V30 36 H 6.90777 3.19643 -0.34959 0
M  V30 37 H 6.66189 2.54933 -1.98702 0
M  V30 38 H 6.1754 -2.2487 0.220054 0
M  V30 39 H 4.73329 -2.33749 1.36309 0
M  V30 40 H 0.0534394 -1.07093 -0.821465 0
M  V30 41 H 1.69016 -0.599941 -1.3204 0
M  V30 42 H 0.323153 0.419621 -1.8708 0
M  V30 END ATOM
M  V30 BEGIN BOND
M  V30 1 1 1 2
M  V30 2 1 2 3
M  V30 3 2 3 4
M  V30 4 1 4 5
M  V30 5 2 5 6
M  V30 6 1 6 7
M  V30 7 2 7 8
M  V30 8 1 8 9
M  V30 9 1 9 10
M  V30 10 1 10 11
M  V30 11 1 10 12
M  V30 12 1 5 13
M  V30 13 1 13 14
M  V30 14 1 14 15
M  V30 15 1 15 16
M  V30 16 2 16 17
M  V30 17 1 17 18
M  V30 18 1 18 19
M  V30 19 2 18 20
M  V30 20 1 20 21
M  V30 21 2 21 22
M  V30 22 1 21 23
M  V30 23 1 14 24
M  V30 24 1 8 3
M  V30 25 1 22 16
M  V30 26 1 1 25
M  V30 27 1 1 26
M  V30 28 1 1 27
M  V30 29 1 4 28
M  V30 30 1 6 29
M  V30 31 1 7 30
M  V30 32 1 10 31
M  V30 33 1 13 32
M  V30 34 1 13 33
M  V30 35 1 15 34
M  V30 36 1 15 35
M  V30 37 1 19 36
M  V30 38 1 19 37
M  V30 39 1 23 38
M  V30 40 1 23 39
M  V30 41 1 24 40
M  V30 42 1 24 41
M  V30 43 1 24 42
M  V30 END BOND
M  V30 END CTAB
M  END
