
     RDKit          3D

  0  0  0  0  0  0  0  0  0  0999 V3000
M  V30 BEGIN CTAB
M  V30 COUNTS 60 59 0 0 0
M  V30 BEGIN ATOM
M  V30 1 C 7.09637 0.758557 2.28416 0
M  V30 2 C 6.41325 1.26883 1.03621 0
M  V30 3 C 6.15099 0.119538 0.0879467 0
M  V30 4 C 5.47088 0.578601 -1.17579 0
M  V30 5 C 4.14846 1.22821 -0.958723 0
M  V30 6 C 3.10918 0.397102 -0.291277 0
M  V30 7 C 2.78354 -0.851839 -1.06776 0
M  V30 8 N 2.2878 -0.563932 -2.37227 0
M  V30 9 C 2.22858 -1.96632 -0.310832 0
M  V30 10 C 1.03407 -1.97477 0.498412 0
M  V30 11 C -0.284524 -1.66017 -0.0613946 0
M  V30 12 C -0.628567 -0.303259 -0.504697 0
M  V30 13 C -2.02533 -0.277108 -1.09837 0
M  V30 14 C -3.0436 -0.696278 -0.0863546 0
M  V30 15 C -4.39629 -0.580553 -0.786932 0
M  V30 16 C -5.52895 -0.971013 0.108962 0
M  V30 17 C -5.62071 -0.115755 1.34878 0
M  V30 18 C -5.82496 1.32841 1.05277 0
M  V30 19 C -7.08806 1.61327 0.28031 0
M  V30 20 N -8.28183 1.20652 0.945255 0
M  V30 21 H 8.15069 1.15298 2.29856 0
M  V30 22 H 6.54358 1.1475 3.17078 0
M  V30 23 H 7.07845 -0.335525 2.26937 0
M  V30 24 H 5.47434 1.7942 1.29485 0
M  V30 25 H 7.06672 1.99348 0.48146 0
M  V30 26 H 7.09222 -0.386139 -0.192776 0
M  V30 27 H 5.54619 -0.63064 0.64596 0
M  V30 28 H 5.46864 -0.179027 -1.96223 0
M  V30 29 H 6.14543 1.39647 -1.58018 0
M  V30 30 H 4.31005 2.1347 -0.336676 0
M  V30 31 H 3.76745 1.56214 -1.93934 0
M  V30 32 H 2.18886 1.01403 -0.242373 0
M  V30 33 H 3.43573 0.0948134 0.747945 0
M  V30 34 H 3.88326 -1.26798 -1.34138 0
M  V30 35 H 2.83499 -0.972156 -3.15355 0
M  V30 36 H 2.18542 0.454648 -2.55907 0
M  V30 37 H 2.09364 -2.82027 -1.09449 0
M  V30 38 H 3.0963 -2.40576 0.313737 0
M  V30 39 H 0.935291 -3.06166 0.901865 0
M  V30 40 H 1.1833 -1.44294 1.51016 0
M  V30 41 H -0.509746 -2.35426 -0.937932 0
M  V30 42 H -1.10769 -1.98013 0.679382 0
M  V30 43 H -0.769436 0.298777 0.48329 0
M  V30 44 H 0.068412 0.294929 -1.06323 0
M  V30 45 H -2.08046 -0.866253 -2.03684 0
M  V30 46 H -2.22652 0.802025 -1.35008 0
M  V30 47 H -2.90803 -1.78067 0.126801 0
M  V30 48 H -2.95891 -0.0422338 0.791803 0
M  V30 49 H -4.37422 -1.29177 -1.63695 0
M  V30 50 H -4.50615 0.437123 -1.19281 0
M  V30 51 H -6.4682 -0.811063 -0.458997 0
M  V30 52 H -5.48737 -2.04463 0.375145 0
M  V30 53 H -4.73594 -0.214992 2.00179 0
M  V30 54 H -6.48781 -0.471617 1.94387 0
M  V30 55 H -4.97919 1.70635 0.417323 0
M  V30 56 H -5.81452 1.88508 2.00551 0
M  V30 57 H -7.02137 1.2278 -0.753187 0
M  V30 58 H -7.13715 2.73691 0.176148 0
M  V30 59 H -8.80244 0.547603 0.345826 0
M  V30 60 H -8.17412 0.919623 1.9221 0
M  V30 END ATOM
M  V30 BEGIN BOND
M  V30 1 1 1 2
M  V30 2 1 2 3
M  V30 3 1 3 4
M  V30 4 1 4 5
M  V30 5 1 5 6
M  V30 6 1 6 7
M  V30 7 1 7 8
M  V30 8 1 7 9
M  V30 9 1 9 10
M  V30 10 1 10 11
M  V30 11 1 11 12
M  V30 12 1 12 13
M  V30 13 1 13 14
M  V30 14 1 14 15
M  V30 15 1 15 16
M  V30 16 1 16 17
M  V30 17 1 17 18
M  V30 18 1 18 19
M  V30 19 1 19 20
M  V30 20 1 1 21
M  V30 21 1 1 22
M  V30 22 1 1 23
M  V30 23 1 2 24
M  V30 24 1 2 25
M  V30 25 1 3 26
M  V30 26 1 3 27
M  V30 27 1 4 28
M  V30 28 1 4 29
M  V30 29 1 5 30
M  V30 30 1 5 31
M  V30 31 1 6 32
M  V30 32 1 6 33
M  V30 33 1 7 34
M  V30 34 1 8 35
M  V30 35 1 8 36
M  V30 36 1 9 37
M  V30 37 1 9 38
M  V30 38 1 10 39
M  V30 39 1 10 40
M  V30 40 1 11 41
M  V30 41 1 11 42
M  V30 42 1 12 43
M  V30 43 1 12 44
M  V30 44 1 13 45
M  V30 45 1 13 46
M  V30 46 1 14 47
M  V30 47 1 14 48
M  V30 48 1 15 49
M  V30 49 1 15 50
M  V30 50 1 16 51
M  V30 51 1 16 52
M  V30 52 1 17 53
M  V30 53 1 17 54
M  V30 54 1 18 55
M  V30 55 1 18 56
M  V30 56 1 19 57
M  V30 57 1 19 58
M  V30 58 1 20 59
M  V30 59 1 20 60
M  V30 END BOND
M  V30 END CTAB
M  END
