
     RDKit          3D

  0  0  0  0  0  0  0  0  0  0999 V3000
M  V30 BEGIN CTAB
M  V30 COUNTS 178 184 0 0 0
M  V30 BEGIN ATOM
M  V30 1 O 1.4699 -1.33708 0.564713 0
M  V30 2 C 2.70429 -1.27796 0.139665 0
M  V30 3 N 3.46277 -2.38643 0.319265 0
M  V30 4 C 4.53446 -2.84305 1.24247 0
M  V30 5 C 4.04992 -3.07524 2.58048 0
M  V30 6 C 5.02386 -3.55967 3.60385 0
M  V30 7 C 3.1565 -2.07658 3.23515 0
M  V30 8 C 5.7989 -2.30061 0.815561 0
M  V30 9 O 5.67417 -1.78468 -0.414829 0
M  V30 10 N 7.12326 -2.11377 1.20692 0
M  V30 11 C 8.36778 -2.32406 0.357476 0
M  V30 12 C 9.21782 -3.18288 1.22334 0
M  V30 13 C 8.73814 -2.91696 2.59707 0
M  V30 14 C 7.80294 -1.68191 2.38544 0
M  V30 15 C 8.70443 -0.491578 2.21393 0
M  V30 16 O 9.96619 -0.84582 2.10366 0
M  V30 17 N 8.41032 0.869703 2.15522 0
M  V30 18 C 9.24775 1.54882 1.10848 0
M  V30 19 C 7.56957 1.75295 2.88586 0
M  V30 20 C 6.12529 1.63266 2.87643 0
M  V30 21 O 5.66027 0.45441 3.07818 0
M  V30 22 N 5.07002 2.55429 2.69237 0
M  V30 23 C 4.86072 3.59868 1.76147 0
M  V30 24 C 3.55713 3.43025 0.993959 0
M  V30 25 O 2.82709 4.48033 1.13675 0
M  V30 26 O 3.1538 2.41029 0.268822 0
M  V30 27 C 2.43172 1.24233 0.328327 0
M  V30 28 C 2.86844 0.0740077 -0.444071 0
M  V30 29 N 2.13193 0.0139903 -1.76462 0
M  V30 30 C 2.77109 0.476457 -2.91596 0
M  V30 31 O 3.96661 0.979545 -2.68912 0
M  V30 32 C 2.40084 0.508601 -4.30201 0
M  V30 33 C 1.33837 -0.205931 -4.87584 0
M  V30 34 N 0.466609 -0.840218 -4.05294 0
M  V30 35 C -0.551478 -1.54747 -4.65261 0
M  V30 36 C -1.4392 -2.20856 -3.86899 0
M  V30 37 C -2.48257 -2.9707 -4.44167 0
M  V30 38 C -2.58517 -3.02103 -5.80593 0
M  V30 39 C -1.6912 -2.3449 -6.60143 0
M  V30 40 C -0.65452 -1.59387 -6.05503 0
M  V30 41 O 0.169669 -0.985762 -6.85925 0
M  V30 42 C 1.142 -0.307505 -6.31442 0
M  V30 43 C 2.05143 0.35278 -7.14257 0
M  V30 44 C 3.07536 1.05138 -6.56727 0
M  V30 45 O 3.89694 1.64929 -7.32511 0
M  V30 46 C 3.2605 1.13769 -5.2269 0
M  V30 47 N 4.34238 1.90525 -4.67202 0
M  V30 48 C 1.84657 0.257158 -8.60696 0
M  V30 49 C -1.83932 -2.42415 -8.07046 0
M  V30 50 N -3.6485 -3.79667 -6.33698 0
M  V30 51 C -1.58347 -2.01853 -2.39944 0
M  V30 52 O -1.05057 -2.8362 -1.65091 0
M  V30 53 N -2.33317 -0.943392 -1.9287 0
M  V30 54 C -2.68647 -0.573212 -0.566486 0
M  V30 55 C -4.11734 -1.17404 -0.331263 0
M  V30 56 C -4.95762 -0.47313 -1.37337 0
M  V30 57 O -4.47067 -0.914593 0.949915 0
M  V30 58 C -4.58109 -1.56815 2.1128 0
M  V30 59 O -3.73048 -1.50951 3.07433 0
M  V30 60 C -5.74765 -2.43384 2.36354 0
M  V30 61 C -5.24481 -3.87951 2.46972 0
M  V30 62 C -6.43143 -4.80813 2.71217 0
M  V30 63 C -4.41288 -3.95991 3.73362 0
M  V30 64 N -6.80332 -2.33638 1.378 0
M  V30 65 C -6.87943 -3.37381 0.323568 0
M  V30 66 C -7.81582 -1.36121 1.30315 0
M  V30 67 O -8.43176 -1.17934 0.188799 0
M  V30 68 C -8.29335 -0.472308 2.38609 0
M  V30 69 N -8.42505 0.913517 1.96242 0
M  V30 70 C -7.62554 1.9811 2.4499 0
M  V30 71 O -7.83916 3.14716 2.04672 0
M  V30 72 C -6.5713 1.70825 3.41377 0
M  V30 73 N -5.42302 2.53303 3.42224 0
M  V30 74 C -4.25969 2.39978 2.60302 0
M  V30 75 O -3.13165 2.37837 3.16099 0
M  V30 76 C -4.25734 2.28356 1.11647 0
M  V30 77 N -3.02016 1.74563 0.621801 0
M  V30 78 C -2.6924 0.886126 -0.425317 0
M  V30 79 O -2.29772 1.48456 -1.52801 0
M  V30 80 C -4.39997 3.75943 0.646597 0
M  V30 81 C -3.28649 4.62344 1.12433 0
M  V30 82 C -4.51342 3.79375 -0.859034 0
M  V30 83 C -5.6196 3.55661 4.44397 0
M  V30 84 C -6.66203 3.06291 5.35638 0
M  V30 85 C -7.20464 1.81375 4.79709 0
M  V30 86 C -9.44785 1.22144 0.981051 0
M  V30 87 C 1.01779 1.59807 -0.167985 0
M  V30 88 C 5.86602 3.8994 0.728747 0
M  V30 89 C 5.32908 5.11539 -0.0788149 0
M  V30 90 C 5.99074 2.80411 -0.318962 0
M  V30 91 C 3.90217 2.46702 3.65347 0
M  V30 92 H 3.27177 -3.21714 -0.369562 0
M  V30 93 H 4.67821 -3.96868 0.906178 0
M  V30 94 H 3.33092 -3.98613 2.48096 0
M  V30 95 H 5.41471 -2.68615 4.18731 0
M  V30 96 H 5.88945 -4.08198 3.18218 0
M  V30 97 H 4.5489 -4.28449 4.3175 0
M  V30 98 H 3.28112 -1.08355 2.76417 0
M  V30 99 H 2.07771 -2.32155 3.20833 0
M  V30 100 H 3.392 -1.93178 4.32555 0
M  V30 101 H 8.77155 -1.36097 0.0507487 0
M  V30 102 H 8.15944 -2.87752 -0.55227 0
M  V30 103 H 9.02268 -4.27795 1.00527 0
M  V30 104 H 10.3081 -3.06178 1.04876 0
M  V30 105 H 8.17373 -3.71311 3.0567 0
M  V30 106 H 9.57171 -2.55445 3.24001 0
M  V30 107 H 7.32819 -1.63766 3.33063 0
M  V30 108 H 9.09648 2.62368 1.10244 0
M  V30 109 H 8.99912 1.18037 0.0985308 0
M  V30 110 H 10.3237 1.39013 1.38654 0
M  V30 111 H 7.84915 1.72218 4.01629 0
M  V30 112 H 7.89206 2.84757 2.71193 0
M  V30 113 H 4.76088 4.54308 2.38842 0
M  V30 114 H 2.28566 0.894613 1.39815 0
M  V30 115 H 3.9108 0.312545 -0.779855 0
M  V30 116 H 1.19253 -0.36631 -1.73367 0
M  V30 117 H -3.17277 -3.49045 -3.7934 0
M  V30 118 H 4.2281 2.83799 -4.25097 0
M  V30 119 H 5.29022 1.4491 -4.72693 0
M  V30 120 H 2.72767 0.685136 -9.12259 0
M  V30 121 H 0.912737 0.824014 -8.89385 0
M  V30 122 H 1.76309 -0.784691 -8.91378 0
M  V30 123 H -2.7954 -1.938 -8.37105 0
M  V30 124 H -0.965371 -1.97522 -8.55336 0
M  V30 125 H -1.89002 -3.52498 -8.30148 0
M  V30 126 H -4.36082 -3.3254 -6.91909 0
M  V30 127 H -3.71635 -4.80773 -6.14867 0
M  V30 128 H -2.72331 -0.265997 -2.65149 0
M  V30 129 H -2.05857 -1.1565 0.109462 0
M  V30 130 H -4.0793 -2.25054 -0.619697 0
M  V30 131 H -4.84365 -1.06724 -2.32756 0
M  V30 132 H -6.02485 -0.460929 -1.16037 0
M  V30 133 H -4.54555 0.521539 -1.63638 0
M  V30 134 H -6.17048 -2.25015 3.40355 0
M  V30 135 H -4.59826 -4.18145 1.65256 0
M  V30 136 H -7.35214 -4.16594 2.83914 0
M  V30 137 H -6.3538 -5.36763 3.66866 0
M  V30 138 H -6.5634 -5.55388 1.91001 0
M  V30 139 H -3.33025 -3.83253 3.47005 0
M  V30 140 H -4.57137 -4.99659 4.15545 0
M  V30 141 H -4.79448 -3.22682 4.43788 0
M  V30 142 H -7.77391 -4.0215 0.468389 0
M  V30 143 H -5.94824 -3.92606 0.202671 0
M  V30 144 H -7.0548 -2.8587 -0.672072 0
M  V30 145 H -9.37399 -0.802375 2.55514 0
M  V30 146 H -7.82509 -0.617848 3.35647 0
M  V30 147 H -6.27867 0.621227 3.28256 0
M  V30 148 H -5.17116 1.8209 0.798792 0
M  V30 149 H -2.17216 2.12272 1.1887 0
M  V30 150 H -5.37819 4.13401 1.03007 0
M  V30 151 H -3.6556 5.32137 1.91365 0
M  V30 152 H -2.97716 5.29685 0.291048 0
M  V30 153 H -2.39539 4.0747 1.41986 0
M  V30 154 H -4.8759 2.82146 -1.24958 0
M  V30 155 H -3.55555 4.04795 -1.35867 0
M  V30 156 H -5.29753 4.54404 -1.17971 0
M  V30 157 H -4.63264 3.6856 4.98378 0
M  V30 158 H -5.94735 4.53704 4.02209 0
M  V30 159 H -7.45479 3.84966 5.48596 0
M  V30 160 H -6.20563 2.92436 6.37873 0
M  V30 161 H -8.31835 1.88227 4.7408 0
M  V30 162 H -6.97536 0.933356 5.42136 0
M  V30 163 H -9.87293 2.24734 1.15297 0
M  V30 164 H -9.10378 1.16908 -0.0502652 0
M  V30 165 H -10.3049 0.517618 1.18558 0
M  V30 166 H 0.387669 0.693853 -0.129524 0
M  V30 167 H 0.568071 2.36556 0.463222 0
M  V30 168 H 1.04888 1.97905 -1.20479 0
M  V30 169 H 6.85839 4.19574 1.04815 0
M  V30 170 H 5.11109 5.96175 0.600678 0
M  V30 171 H 6.10949 5.47205 -0.783651 0
M  V30 172 H 4.4546 4.83651 -0.68573 0
M  V30 173 H 5.32156 2.99054 -1.17946 0
M  V30 174 H 5.86631 1.84335 0.178027 0
M  V30 175 H 7.04792 2.85881 -0.697172 0
M  V30 176 H 3.88629 1.48175 4.14491 0
M  V30 177 H 3.98312 3.31496 4.38102 0
M  V30 178 H 2.96027 2.58587 3.13076 0
M  V30 END ATOM
M  V30 BEGIN BOND
M  V30 1 2 1 2
M  V30 2 1 2 3
M  V30 3 1 3 4
M  V30 4 1 4 5
M  V30 5 1 5 6
M  V30 6 1 5 7
M  V30 7 1 4 8
M  V30 8 2 8 9
M  V30 9 1 8 10
M  V30 10 1 10 11
M  V30 11 1 11 12
M  V30 12 1 12 13
M  V30 13 1 13 14
M  V30 14 1 14 15
M  V30 15 2 15 16
M  V30 16 1 15 17
M  V30 17 1 17 18
M  V30 18 1 17 19
M  V30 19 1 19 20
M  V30 20 2 20 21
M  V30 21 1 20 22
M  V30 22 1 22 23
M  V30 23 1 23 24
M  V30 24 2 24 25
M  V30 25 1 24 26
M  V30 26 1 26 27
M  V30 27 1 27 28
M  V30 28 1 28 29
M  V30 29 1 29 30
M  V30 30 2 30 31
M  V30 31 1 30 32
M  V30 32 1 32 33
M  V30 33 2 33 34
M  V30 34 1 34 35
M  V30 35 2 35 36
M  V30 36 1 36 37
M  V30 37 2 37 38
M  V30 38 1 38 39
M  V30 39 2 39 40
M  V30 40 1 40 41
M  V30 41 1 41 42
M  V30 42 2 42 43
M  V30 43 1 43 44
M  V30 44 2 44 45
M  V30 45 1 44 46
M  V30 46 1 46 47
M  V30 47 1 43 48
M  V30 48 1 39 49
M  V30 49 1 38 50
M  V30 50 1 36 51
M  V30 51 2 51 52
M  V30 52 1 51 53
M  V30 53 1 53 54
M  V30 54 1 54 55
M  V30 55 1 55 56
M  V30 56 1 55 57
M  V30 57 1 57 58
M  V30 58 2 58 59
M  V30 59 1 58 60
M  V30 60 1 60 61
M  V30 61 1 61 62
M  V30 62 1 61 63
M  V30 63 1 60 64
M  V30 64 1 64 65
M  V30 65 1 64 66
M  V30 66 2 66 67
M  V30 67 1 66 68
M  V30 68 1 68 69
M  V30 69 1 69 70
M  V30 70 2 70 71
M  V30 71 1 70 72
M  V30 72 1 72 73
M  V30 73 1 73 74
M  V30 74 2 74 75
M  V30 75 1 74 76
M  V30 76 1 76 77
M  V30 77 1 77 78
M  V30 78 2 78 79
M  V30 79 1 76 80
M  V30 80 1 80 81
M  V30 81 1 80 82
M  V30 82 1 73 83
M  V30 83 1 83 84
M  V30 84 1 84 85
M  V30 85 1 69 86
M  V30 86 1 27 87
M  V30 87 1 23 88
M  V30 88 1 88 89
M  V30 89 1 88 90
M  V30 90 1 22 91
M  V30 91 1 28 2
M  V30 92 2 46 32
M  V30 93 1 78 54
M  V30 94 1 14 10
M  V30 95 1 42 33
M  V30 96 1 85 72
M  V30 97 1 40 35
M  V30 98 1 3 92
M  V30 99 1 4 93
M  V30 100 1 5 94
M  V30 101 1 6 95
M  V30 102 1 6 96
M  V30 103 1 6 97
M  V30 104 1 7 98
M  V30 105 1 7 99
M  V30 106 1 7 100
M  V30 107 1 11 101
M  V30 108 1 11 102
M  V30 109 1 12 103
M  V30 110 1 12 104
M  V30 111 1 13 105
M  V30 112 1 13 106
M  V30 113 1 14 107
M  V30 114 1 18 108
M  V30 115 1 18 109
M  V30 116 1 18 110
M  V30 117 1 19 111
M  V30 118 1 19 112
M  V30 119 1 23 113
M  V30 120 1 27 114
M  V30 121 1 28 115
M  V30 122 1 29 116
M  V30 123 1 37 117
M  V30 124 1 47 118
M  V30 125 1 47 119
M  V30 126 1 48 120
M  V30 127 1 48 121
M  V30 128 1 48 122
M  V30 129 1 49 123
M  V30 130 1 49 124
M  V30 131 1 49 125
M  V30 132 1 50 126
M  V30 133 1 50 127
M  V30 134 1 53 128
M  V30 135 1 54 129
M  V30 136 1 55 130
M  V30 137 1 56 131
M  V30 138 1 56 132
M  V30 139 1 56 133
M  V30 140 1 60 134
M  V30 141 1 61 135
M  V30 142 1 62 136
M  V30 143 1 62 137
M  V30 144 1 62 138
M  V30 145 1 63 139
M  V30 146 1 63 140
M  V30 147 1 63 141
M  V30 148 1 65 142
M  V30 149 1 65 143
M  V30 150 1 65 144
M  V30 151 1 68 145
M  V30 152 1 68 146
M  V30 153 1 72 147
M  V30 154 1 76 148
M  V30 155 1 77 149
M  V30 156 1 80 150
M  V30 157 1 81 151
M  V30 158 1 81 152
M  V30 159 1 81 153
M  V30 160 1 82 154
M  V30 161 1 82 155
M  V30 162 1 82 156
M  V30 163 1 83 157
M  V30 164 1 83 158
M  V30 165 1 84 159
M  V30 166 1 84 160
M  V30 167 1 85 161
M  V30 168 1 85 162
M  V30 169 1 86 163
M  V30 170 1 86 164
M  V30 171 1 86 165
M  V30 172 1 87 166
M  V30 173 1 87 167
M  V30 174 1 87 168
M  V30 175 1 88 169
M  V30 176 1 89 170
M  V30 177 1 89 171
M  V30 178 1 89 172
M  V30 179 1 90 173
M  V30 180 1 90 174
M  V30 181 1 90 175
M  V30 182 1 91 176
M  V30 183 1 91 177
M  V30 184 1 91 178
M  V30 END BOND
M  V30 END CTAB
M  END
