
     RDKit          3D

  0  0  0  0  0  0  0  0  0  0999 V3000
M  V30 BEGIN CTAB
M  V30 COUNTS 30 31 0 0 0
M  V30 BEGIN ATOM
M  V30 1 C -1.44892 -2.39714 -0.242215 0
M  V30 2 C -1.50889 -1.34365 0.839877 0
M  V30 3 C -2.61727 -0.391806 0.794626 0
M  V30 4 C -2.97742 0.559729 -0.247555 0
M  V30 5 C -2.27074 1.08458 0.980733 0
M  V30 6 N -0.236178 -0.672277 1.02949 0
M  V30 7 C 0.590158 -0.192316 -0.0141696 0
M  V30 8 N 0.260087 -0.364625 -1.31095 0
M  V30 9 C 0.994183 0.0427044 -2.34161 0
M  V30 10 C 2.1832 0.690613 -2.0871 0
M  V30 11 C 2.55164 0.883733 -0.765919 0
M  V30 12 C 1.77534 0.453234 0.283466 0
M  V30 13 N 2.18744 0.670017 1.63659 0
M  V30 14 N 3.77752 1.55173 -0.500501 0
M  V30 15 H -0.408753 -2.75898 -0.379387 0
M  V30 16 H -1.78416 -1.9978 -1.22306 0
M  V30 17 H -2.06133 -3.28914 -0.0222835 0
M  V30 18 H -1.6881 -1.99639 1.78314 0
M  V30 19 H -3.49303 -0.701145 1.45785 0
M  V30 20 H -4.07024 0.86091 -0.300224 0
M  V30 21 H -2.48427 0.763875 -1.18514 0
M  V30 22 H -2.88203 1.67766 1.71002 0
M  V30 23 H -1.25066 1.44768 0.873134 0
M  V30 24 H 0.138771 -0.50993 2.01954 0
M  V30 25 H 0.65318 -0.137362 -3.34919 0
M  V30 26 H 2.83057 1.04921 -2.89686 0
M  V30 27 H 3.03086 0.16459 1.95181 0
M  V30 28 H 1.691 1.28976 2.2843 0
M  V30 29 H 3.93686 2.56292 -0.664097 0
M  V30 30 H 4.58119 0.999608 -0.114314 0
M  V30 END ATOM
M  V30 BEGIN BOND
M  V30 1 1 1 2
M  V30 2 1 2 3
M  V30 3 1 3 4
M  V30 4 1 4 5
M  V30 5 1 2 6
M  V30 6 1 6 7
M  V30 7 2 7 8
M  V30 8 1 8 9
M  V30 9 2 9 10
M  V30 10 1 10 11
M  V30 11 2 11 12
M  V30 12 1 12 13
M  V30 13 1 11 14
M  V30 14 1 5 3
M  V30 15 1 12 7
M  V30 16 1 1 15
M  V30 17 1 1 16
M  V30 18 1 1 17
M  V30 19 1 2 18
M  V30 20 1 3 19
M  V30 21 1 4 20
M  V30 22 1 4 21
M  V30 23 1 5 22
M  V30 24 1 5 23
M  V30 25 1 6 24
M  V30 26 1 9 25
M  V30 27 1 10 26
M  V30 28 1 13 27
M  V30 29 1 13 28
M  V30 30 1 14 29
M  V30 31 1 14 30
M  V30 END BOND
M  V30 END CTAB
M  END
