
     RDKit          3D

  0  0  0  0  0  0  0  0  0  0999 V3000
M  V30 BEGIN CTAB
M  V30 COUNTS 33 34 0 0 0
M  V30 BEGIN ATOM
M  V30 1 O 0.687505 1.90691 -0.114402 0
M  V30 2 C 0.930013 0.71967 0.179251 0
M  V30 3 C 2.35894 0.337769 0.351977 0
M  V30 4 C 2.82527 -0.917085 0.674476 0
M  V30 5 C 4.20629 -0.868162 0.742983 0
M  V30 6 C 4.50601 0.448742 0.450264 0
M  V30 7 O 3.40128 1.11199 0.230075 0
M  V30 8 S 6.14098 1.11443 0.388263 0
M  V30 9 O 6.42894 1.58346 -1.03051 0
M  V30 10 O 6.26716 2.29924 1.2728 0
M  V30 11 N 7.28913 -0.116514 0.744701 0
M  V30 12 N -0.0703102 -0.241132 0.347583 0
M  V30 13 C -1.46642 -0.0970856 0.237734 0
M  V30 14 C -2.20966 -1.26351 0.195388 0
M  V30 15 C -3.57138 -1.19262 0.102509 0
M  V30 16 C -4.2409 0.00467001 0.0487939 0
M  V30 17 C -3.48025 1.15122 0.0926752 0
M  V30 18 C -2.08239 1.11869 0.187943 0
M  V30 19 S -5.97092 -0.00741334 -0.0687792 0
M  V30 20 O -6.59551 1.17439 0.631391 0
M  V30 21 O -6.5038 -1.28221 0.567622 0
M  V30 22 N -6.43982 -0.0222162 -1.72516 0
M  V30 23 H 2.23703 -1.80855 0.850305 0
M  V30 24 H 4.8855 -1.69103 0.976098 0
M  V30 25 H 7.12274 -0.89851 0.0720254 0
M  V30 26 H 7.12236 -0.527222 1.70225 0
M  V30 27 H 0.303996 -1.21899 0.600801 0
M  V30 28 H -1.73695 -2.25988 0.23382 0
M  V30 29 H -4.15203 -2.12601 0.0695828 0
M  V30 30 H -3.99052 2.126 0.0513122 0
M  V30 31 H -1.55362 2.07917 0.22631 0
M  V30 32 H -5.66406 0.219378 -2.37387 0
M  V30 33 H -6.98462 -0.857586 -1.99567 0
M  V30 END ATOM
M  V30 BEGIN BOND
M  V30 1 2 1 2
M  V30 2 1 2 3
M  V30 3 2 3 4
M  V30 4 1 4 5
M  V30 5 2 5 6
M  V30 6 1 6 7
M  V30 7 1 6 8
M  V30 8 2 8 9
M  V30 9 2 8 10
M  V30 10 1 8 11
M  V30 11 1 2 12
M  V30 12 1 12 13
M  V30 13 2 13 14
M  V30 14 1 14 15
M  V30 15 2 15 16
M  V30 16 1 16 17
M  V30 17 2 17 18
M  V30 18 1 16 19
M  V30 19 2 19 20
M  V30 20 2 19 21
M  V30 21 1 19 22
M  V30 22 1 7 3
M  V30 23 1 18 13
M  V30 24 1 4 23
M  V30 25 1 5 24
M  V30 26 1 11 25
M  V30 27 1 11 26
M  V30 28 1 12 27
M  V30 29 1 14 28
M  V30 30 1 15 29
M  V30 31 1 17 30
M  V30 32 1 18 31
M  V30 33 1 22 32
M  V30 34 1 22 33
M  V30 END BOND
M  V30 END CTAB
M  END
