
     RDKit          3D

  0  0  0  0  0  0  0  0  0  0999 V3000
M  V30 BEGIN CTAB
M  V30 COUNTS 41 42 0 0 0
M  V30 BEGIN ATOM
M  V30 1 N 5.19081 -1.91457 0.493659 0
M  V30 2 N 3.91169 -1.37711 0.331184 0
M  V30 3 C 2.96576 -1.38137 1.37626 0
M  V30 4 O 3.26992 -1.87915 2.49466 0
M  V30 5 C 1.60804 -0.790266 1.13894 0
M  V30 6 N 1.4528 -0.29719 -0.174212 0
M  V30 7 C 0.201633 0.313698 -0.528885 0
M  V30 8 C -1.00983 -0.434314 -0.184874 0
M  V30 9 C -1.47559 -1.40873 -1.03991 0
M  V30 10 C -2.59762 -2.20428 -0.785081 0
M  V30 11 C -3.06357 -3.24529 -1.73914 0
M  V30 12 C -3.26879 -1.99887 0.383473 0
M  V30 13 C -2.84765 -1.04516 1.26368 0
M  V30 14 C -1.73741 -0.278769 0.979396 0
M  V30 15 N -1.38676 0.692922 1.90921 0
M  V30 16 C 0.129003 1.76704 -0.540607 0
M  V30 17 C -0.634997 2.44467 -1.50822 0
M  V30 18 C -0.734453 3.79524 -1.58995 0
M  V30 19 C -0.0650198 4.58641 -0.693648 0
M  V30 20 C 0.696906 3.96184 0.272937 0
M  V30 21 C 0.781761 2.5675 0.334072 0
M  V30 22 H 5.48018 -1.98091 1.49332 0
M  V30 23 H 5.88189 -1.2985 0.016118 0
M  V30 24 H 3.66358 -0.964069 -0.583821 0
M  V30 25 H 0.812868 -1.51038 1.4504 0
M  V30 26 H 1.55208 0.0268598 1.87757 0
M  V30 27 H 1.69017 -1.11538 -0.825944 0
M  V30 28 H 0.254065 0.0972693 -1.71862 0
M  V30 29 H -1.00135 -1.64438 -1.99818 0
M  V30 30 H -2.6499 -3.08239 -2.75931 0
M  V30 31 H -4.16497 -3.23737 -1.84592 0
M  V30 32 H -2.79026 -4.25182 -1.34354 0
M  V30 33 H -4.14811 -2.60997 0.602489 0
M  V30 34 H -3.40003 -0.902701 2.18559 0
M  V30 35 H -0.743883 0.48684 2.6886 0
M  V30 36 H -1.77817 1.65183 1.8367 0
M  V30 37 H -1.16264 1.80639 -2.21529 0
M  V30 38 H -1.35093 4.22664 -2.37467 0
M  V30 39 H -0.150341 5.66382 -0.7665 0
M  V30 40 H 1.22347 4.58834 0.977982 0
M  V30 41 H 1.39567 2.17563 1.11009 0
M  V30 END ATOM
M  V30 BEGIN BOND
M  V30 1 1 1 2
M  V30 2 1 2 3
M  V30 3 2 3 4
M  V30 4 1 3 5
M  V30 5 1 5 6
M  V30 6 1 6 7
M  V30 7 1 7 8
M  V30 8 2 8 9
M  V30 9 1 9 10
M  V30 10 1 10 11
M  V30 11 2 10 12
M  V30 12 1 12 13
M  V30 13 2 13 14
M  V30 14 1 14 15
M  V30 15 1 7 16
M  V30 16 2 16 17
M  V30 17 1 17 18
M  V30 18 2 18 19
M  V30 19 1 19 20
M  V30 20 2 20 21
M  V30 21 1 14 8
M  V30 22 1 21 16
M  V30 23 1 1 22
M  V30 24 1 1 23
M  V30 25 1 2 24
M  V30 26 1 5 25
M  V30 27 1 5 26
M  V30 28 1 6 27
M  V30 29 1 7 28
M  V30 30 1 9 29
M  V30 31 1 11 30
M  V30 32 1 11 31
M  V30 33 1 11 32
M  V30 34 1 12 33
M  V30 35 1 13 34
M  V30 36 1 15 35
M  V30 37 1 15 36
M  V30 38 1 17 37
M  V30 39 1 18 38
M  V30 40 1 19 39
M  V30 41 1 20 40
M  V30 42 1 21 41
M  V30 END BOND
M  V30 END CTAB
M  END
