
     RDKit          3D

  0  0  0  0  0  0  0  0  0  0999 V3000
M  V30 BEGIN CTAB
M  V30 COUNTS 37 39 0 0 0
M  V30 BEGIN ATOM
M  V30 1 N -3.74595 -1.56179 2.20648 0
M  V30 2 C -4.26653 -1.67872 0.880596 0
M  V30 3 C -3.26265 -2.10444 -0.144224 0
M  V30 4 C -2.12327 -1.15083 -0.252473 0
M  V30 5 C -0.867725 -1.31071 0.236101 0
M  V30 6 N -0.0635659 -0.231275 -0.0438427 0
M  V30 7 C -0.841715 0.6213 -0.724584 0
M  V30 8 C -2.11575 0.0801069 -0.867475 0
M  V30 9 C -3.09578 0.769407 -1.53171 0
M  V30 10 C -2.85718 2.00471 -2.07348 0
M  V30 11 C -1.59998 2.5371 -1.93152 0
M  V30 12 C -0.560141 1.87945 -1.26367 0
M  V30 13 C 1.29774 -0.156747 0.362093 0
M  V30 14 O 1.81193 -1.12783 1.01839 0
M  V30 15 C 2.17043 0.983477 0.0722842 0
M  V30 16 N 3.5103 0.763713 0.627475 0
M  V30 17 N 3.89386 1.11736 1.82799 0
M  V30 18 C 5.16125 0.767926 2.00038 0
M  V30 19 C 5.55124 0.165145 0.815511 0
M  V30 20 N 4.50238 0.187293 0.00532085 0
M  V30 21 N 6.85611 -0.378487 0.534177 0
M  V30 22 H -4.19376 -0.71051 2.66321 0
M  V30 23 H -4.03719 -2.36084 2.83618 0
M  V30 24 H -5.06237 -2.46867 0.902191 0
M  V30 25 H -4.80777 -0.756598 0.528423 0
M  V30 26 H -3.77948 -2.25709 -1.10387 0
M  V30 27 H -2.84378 -3.08938 0.147409 0
M  V30 28 H -0.502944 -2.17885 0.790232 0
M  V30 29 H -4.06509 0.345881 -1.63482 0
M  V30 30 H -3.60352 2.58004 -2.60468 0
M  V30 31 H -1.35429 3.52046 -2.34462 0
M  V30 32 H 0.390363 2.34799 -1.18886 0
M  V30 33 H 2.29542 1.15877 -1.03107 0
M  V30 34 H 1.80106 1.9232 0.516119 0
M  V30 35 H 5.7981 0.897151 2.84869 0
M  V30 36 H 7.47629 -0.724664 1.30829 0
M  V30 37 H 7.13398 -0.403044 -0.465369 0
M  V30 END ATOM
M  V30 BEGIN BOND
M  V30 1 1 1 2
M  V30 2 1 2 3
M  V30 3 1 3 4
M  V30 4 2 4 5
M  V30 5 1 5 6
M  V30 6 1 6 7
M  V30 7 2 7 8
M  V30 8 1 8 9
M  V30 9 2 9 10
M  V30 10 1 10 11
M  V30 11 2 11 12
M  V30 12 1 6 13
M  V30 13 2 13 14
M  V30 14 1 13 15
M  V30 15 1 15 16
M  V30 16 1 16 17
M  V30 17 2 17 18
M  V30 18 1 18 19
M  V30 19 2 19 20
M  V30 20 1 19 21
M  V30 21 1 8 4
M  V30 22 1 20 16
M  V30 23 1 12 7
M  V30 24 1 1 22
M  V30 25 1 1 23
M  V30 26 1 2 24
M  V30 27 1 2 25
M  V30 28 1 3 26
M  V30 29 1 3 27
M  V30 30 1 5 28
M  V30 31 1 9 29
M  V30 32 1 10 30
M  V30 33 1 11 31
M  V30 34 1 12 32
M  V30 35 1 15 33
M  V30 36 1 15 34
M  V30 37 1 18 35
M  V30 38 1 21 36
M  V30 39 1 21 37
M  V30 END BOND
M  V30 END CTAB
M  END
