
     RDKit          3D

  0  0  0  0  0  0  0  0  0  0999 V3000
M  V30 BEGIN CTAB
M  V30 COUNTS 27 27 0 0 0
M  V30 BEGIN ATOM
M  V30 1 N 4.41714 -1.12265 -0.770633 0
M  V30 2 N 3.17053 -0.558645 -1.01395 0
M  V30 3 C 2.8006 0.483656 -0.359511 0
M  V30 4 N 1.54319 1.11274 -0.554945 0
M  V30 5 C 0.306568 0.502539 -0.232073 0
M  V30 6 C 0.264972 -0.766042 0.301825 0
M  V30 7 C -0.912593 -1.40086 0.631822 0
M  V30 8 C -2.10665 -0.727532 0.414486 0
M  V30 9 C -2.11263 0.551523 -0.121223 0
M  V30 10 C -0.889401 1.15027 -0.438577 0
M  V30 11 C -3.3951 1.26561 -0.350853 0
M  V30 12 C -3.40399 -1.40562 0.769131 0
M  V30 13 N 3.72727 0.990347 0.590389 0
M  V30 14 H 5.14299 -1.20541 -1.50959 0
M  V30 15 H 4.63261 -1.47343 0.179437 0
M  V30 16 H 1.53891 2.07807 -0.959326 0
M  V30 17 H 1.18198 -1.30144 0.4764 0
M  V30 18 H -0.958559 -2.4008 1.05336 0
M  V30 19 H -0.871516 2.13055 -0.850368 0
M  V30 20 H -4.12562 0.642693 -0.904694 0
M  V30 21 H -3.84223 1.63881 0.610956 0
M  V30 22 H -3.19201 2.17038 -0.958507 0
M  V30 23 H -4.12999 -0.633695 1.12831 0
M  V30 24 H -3.80684 -1.98577 -0.0708614 0
M  V30 25 H -3.16531 -2.09626 1.60399 0
M  V30 26 H 3.49418 1.10996 1.59554 0
M  V30 27 H 4.69153 1.25103 0.236541 0
M  V30 END ATOM
M  V30 BEGIN BOND
M  V30 1 1 1 2
M  V30 2 2 2 3
M  V30 3 1 3 4
M  V30 4 1 4 5
M  V30 5 2 5 6
M  V30 6 1 6 7
M  V30 7 2 7 8
M  V30 8 1 8 9
M  V30 9 2 9 10
M  V30 10 1 9 11
M  V30 11 1 8 12
M  V30 12 1 3 13
M  V30 13 1 10 5
M  V30 14 1 1 14
M  V30 15 1 1 15
M  V30 16 1 4 16
M  V30 17 1 6 17
M  V30 18 1 7 18
M  V30 19 1 10 19
M  V30 20 1 11 20
M  V30 21 1 11 21
M  V30 22 1 11 22
M  V30 23 1 12 23
M  V30 24 1 12 24
M  V30 25 1 12 25
M  V30 26 1 13 26
M  V30 27 1 13 27
M  V30 END BOND
M  V30 END CTAB
M  END
