
     RDKit          3D

  0  0  0  0  0  0  0  0  0  0999 V3000
M  V30 BEGIN CTAB
M  V30 COUNTS 30 30 0 0 0
M  V30 BEGIN ATOM
M  V30 1 N -3.58705 -0.969596 -0.195792 0
M  V30 2 C -3.20322 0.360339 -0.448497 0
M  V30 3 N -4.13667 1.23576 -0.709837 0
M  V30 4 C -1.79249 0.758656 -0.420397 0
M  V30 5 C -0.940085 0.0195877 -1.42739 0
M  V30 6 C 0.021269 -0.938282 -0.741294 0
M  V30 7 C 1.01194 -0.190659 0.140756 0
M  V30 8 C 0.315658 0.925228 0.816799 0
M  V30 9 C -1.15465 0.555728 0.929343 0
M  V30 10 N 2.1422 0.109 -0.635766 0
M  V30 11 S 3.61067 -0.565711 -0.354491 0
M  V30 12 O 3.44257 -1.98246 0.184634 0
M  V30 13 O 4.35596 -0.744137 -1.67037 0
M  V30 14 N 4.67533 0.231526 0.715862 0
M  V30 15 H -3.94059 -1.56012 -0.962378 0
M  V30 16 H -3.51644 -1.35852 0.755725 0
M  V30 17 H -5.13667 0.97509 -0.734373 0
M  V30 18 H -1.71485 1.86111 -0.638039 0
M  V30 19 H -1.54971 -0.592993 -2.11527 0
M  V30 20 H -0.315677 0.734511 -2.01756 0
M  V30 21 H 0.56524 -1.4577 -1.58477 0
M  V30 22 H -0.507542 -1.73686 -0.202373 0
M  V30 23 H 1.31274 -0.936222 0.934798 0
M  V30 24 H 0.626367 1.06048 1.89425 0
M  V30 25 H 0.391289 1.88926 0.263472 0
M  V30 26 H -1.65449 1.16295 1.71164 0
M  V30 27 H -1.27957 -0.503632 1.2276 0
M  V30 28 H 1.88184 0.232351 -1.62313 0
M  V30 29 H 5.66669 0.191668 0.389017 0
M  V30 30 H 4.40995 1.23364 0.769634 0
M  V30 END ATOM
M  V30 BEGIN BOND
M  V30 1 1 1 2
M  V30 2 2 2 3 CFG=2
M  V30 3 1 2 4
M  V30 4 1 4 5
M  V30 5 1 5 6
M  V30 6 1 6 7
M  V30 7 1 7 8
M  V30 8 1 8 9
M  V30 9 1 7 10
M  V30 10 1 10 11
M  V30 11 2 11 12
M  V30 12 2 11 13
M  V30 13 1 11 14
M  V30 14 1 9 4
M  V30 15 1 1 15
M  V30 16 1 1 16
M  V30 17 1 3 17
M  V30 18 1 4 18
M  V30 19 1 5 19
M  V30 20 1 5 20
M  V30 21 1 6 21
M  V30 22 1 6 22
M  V30 23 1 7 23
M  V30 24 1 8 24
M  V30 25 1 8 25
M  V30 26 1 9 26
M  V30 27 1 9 27
M  V30 28 1 10 28
M  V30 29 1 14 29
M  V30 30 1 14 30
M  V30 END BOND
M  V30 END CTAB
M  END
