
     RDKit          3D

  0  0  0  0  0  0  0  0  0  0999 V3000
M  V30 BEGIN CTAB
M  V30 COUNTS 22 22 0 0 0
M  V30 BEGIN ATOM
M  V30 1 C 3.48191 0.0315773 -0.0413029 0
M  V30 2 O 2.10958 -0.292284 -0.106061 0
M  V30 3 C 1.10561 0.630321 0.153171 0
M  V30 4 O 1.43166 1.78562 0.453698 0
M  V30 5 C -0.272921 0.169593 0.0523128 0
M  V30 6 C -0.590604 -1.13341 -0.287394 0
M  V30 7 N 0.523149 -2.01046 -0.536222 0
M  V30 8 C -1.88966 -1.56806 -0.382582 0
M  V30 9 C -2.94265 -0.722471 -0.142984 0
M  V30 10 C -2.64708 0.599089 0.201968 0
M  V30 11 C -1.33448 1.01758 0.292671 0
M  V30 12 N -1.01171 2.37174 0.645831 0
M  V30 13 H 4.08697 -0.760986 0.420069 0
M  V30 14 H 3.55351 1.00793 0.482234 0
M  V30 15 H 3.84373 0.166758 -1.08227 0
M  V30 16 H 1.03037 -2.4817 0.263738 0
M  V30 17 H 0.855505 -2.2019 -1.50426 0
M  V30 18 H -2.10012 -2.58435 -0.648121 0
M  V30 19 H -3.98329 -1.0374 -0.210439 0
M  V30 20 H -3.46317 1.28899 0.396799 0
M  V30 21 H -0.850037 2.6174 1.66047 0
M  V30 22 H -0.936276 3.10639 -0.0813269 0
M  V30 END ATOM
M  V30 BEGIN BOND
M  V30 1 1 1 2
M  V30 2 1 2 3
M  V30 3 2 3 4
M  V30 4 1 3 5
M  V30 5 2 5 6
M  V30 6 1 6 7
M  V30 7 1 6 8
M  V30 8 2 8 9
M  V30 9 1 9 10
M  V30 10 2 10 11
M  V30 11 1 11 12
M  V30 12 1 11 5
M  V30 13 1 1 13
M  V30 14 1 1 14
M  V30 15 1 1 15
M  V30 16 1 7 16
M  V30 17 1 7 17
M  V30 18 1 8 18
M  V30 19 1 9 19
M  V30 20 1 10 20
M  V30 21 1 12 21
M  V30 22 1 12 22
M  V30 END BOND
M  V30 END CTAB
M  END
