
     RDKit          3D

  0  0  0  0  0  0  0  0  0  0999 V3000
M  V30 BEGIN CTAB
M  V30 COUNTS 23 23 0 0 0
M  V30 BEGIN ATOM
M  V30 1 C 3.66238 -0.11551 -0.11187 0
M  V30 2 N 2.6816 0.22686 -1.09356 0
M  V30 3 C 1.37883 -0.314877 -0.849327 0
M  V30 4 C 0.766871 0.350398 0.372442 0
M  V30 5 C -0.5992 -0.237286 0.61661 0
M  V30 6 N -0.834836 -1.30764 1.38681 0
M  V30 7 N -2.10741 -1.57085 1.39018 0
M  V30 8 C -2.69912 -0.646342 0.603544 0
M  V30 9 N -1.74992 0.17989 0.127083 0
M  V30 10 N -1.96602 1.27951 -0.731179 0
M  V30 11 N -4.10223 -0.609534 0.353786 0
M  V30 12 H 4.42525 -0.770895 -0.619578 0
M  V30 13 H 3.24469 -0.649922 0.773301 0
M  V30 14 H 4.20985 0.762881 0.285914 0
M  V30 15 H 2.69445 1.24037 -1.27365 0
M  V30 16 H 0.707966 -0.165296 -1.72943 0
M  V30 17 H 1.39824 -1.40637 -0.652306 0
M  V30 18 H 1.43137 0.13971 1.22292 0
M  V30 19 H 0.730619 1.43658 0.210614 0
M  V30 20 H -1.26442 2.04432 -0.805659 0
M  V30 21 H -2.82352 1.34913 -1.30292 0
M  V30 22 H -4.68775 0.138014 0.776637 0
M  V30 23 H -4.49768 -1.35314 -0.256678 0
M  V30 END ATOM
M  V30 BEGIN BOND
M  V30 1 1 1 2
M  V30 2 1 2 3
M  V30 3 1 3 4
M  V30 4 1 4 5
M  V30 5 2 5 6
M  V30 6 1 6 7
M  V30 7 2 7 8
M  V30 8 1 8 9
M  V30 9 1 9 10
M  V30 10 1 8 11
M  V30 11 1 9 5
M  V30 12 1 1 12
M  V30 13 1 1 13
M  V30 14 1 1 14
M  V30 15 1 2 15
M  V30 16 1 3 16
M  V30 17 1 3 17
M  V30 18 1 4 18
M  V30 19 1 4 19
M  V30 20 1 10 20
M  V30 21 1 10 21
M  V30 22 1 11 22
M  V30 23 1 11 23
M  V30 END BOND
M  V30 END CTAB
M  END
