
     RDKit          3D

  0  0  0  0  0  0  0  0  0  0999 V3000
M  V30 BEGIN CTAB
M  V30 COUNTS 40 42 0 0 0
M  V30 BEGIN ATOM
M  V30 1 C -4.56157 -1.51115 1.93145 0
M  V30 2 O -4.05726 -0.277959 1.47422 0
M  V30 3 C -2.8562 -0.159048 0.792114 0
M  V30 4 C -2.09141 -1.27609 0.529984 0
M  V30 5 C -0.879807 -1.18387 -0.153917 0
M  V30 6 C -0.477956 0.0740217 -0.55781 0
M  V30 7 C -1.25811 1.18294 -0.286386 0
M  V30 8 C -2.45562 1.0974 0.388936 0
M  V30 9 O -3.23502 2.22344 0.657856 0
M  V30 10 C -2.80089 3.50167 0.232949 0
M  V30 11 C 0.795602 0.243579 -1.30467 0
M  V30 12 C 0.834571 -0.471226 -2.60432 0
M  V30 13 C 1.25921 -1.88969 -2.52782 0
M  V30 14 O 0.653925 -2.79861 -3.16704 0
M  V30 15 N 2.3769 -2.18874 -1.70527 0
M  V30 16 C 2.68213 -1.22829 -0.668714 0
M  V30 17 C 1.96099 -0.0879156 -0.46164 0
M  V30 18 C 2.35595 0.759583 0.567914 0
M  V30 19 N 1.64778 1.98161 0.842903 0
M  V30 20 N 3.42754 0.43319 1.32301 0
M  V30 21 C 4.1393 -0.670453 1.1359 0
M  V30 22 N 3.75289 -1.48117 0.142615 0
M  V30 23 N 5.25193 -0.93617 1.9768 0
M  V30 24 H -5.66435 -1.45196 2.07593 0
M  V30 25 H -4.39523 -2.30211 1.16938 0
M  V30 26 H -4.04343 -1.77578 2.8709 0
M  V30 27 H -2.3828 -2.27747 0.83575 0
M  V30 28 H -0.291946 -2.04578 -0.355009 0
M  V30 29 H -0.981498 2.2016 -0.595894 0
M  V30 30 H -3.60721 4.22352 0.523814 0
M  V30 31 H -1.8144 3.77459 0.638821 0
M  V30 32 H -2.70318 3.51798 -0.88488 0
M  V30 33 H 0.854511 1.34088 -1.55396 0
M  V30 34 H 1.58095 0.0688395 -3.26137 0
M  V30 35 H -0.125073 -0.38249 -3.17118 0
M  V30 36 H 2.9397 -3.03976 -1.83614 0
M  V30 37 H 1.15898 2.17608 1.74046 0
M  V30 38 H 1.61582 2.71785 0.112609 0
M  V30 39 H 6.21751 -1.11268 1.57163 0
M  V30 40 H 5.17679 -0.970349 3.0138 0
M  V30 END ATOM
M  V30 BEGIN BOND
M  V30 1 1 1 2
M  V30 2 1 2 3
M  V30 3 2 3 4
M  V30 4 1 4 5
M  V30 5 2 5 6
M  V30 6 1 6 7
M  V30 7 2 7 8
M  V30 8 1 8 9
M  V30 9 1 9 10
M  V30 10 1 6 11
M  V30 11 1 11 12
M  V30 12 1 12 13
M  V30 13 2 13 14
M  V30 14 1 13 15
M  V30 15 1 15 16
M  V30 16 2 16 17
M  V30 17 1 17 18
M  V30 18 1 18 19
M  V30 19 2 18 20
M  V30 20 1 20 21
M  V30 21 2 21 22
M  V30 22 1 21 23
M  V30 23 1 8 3
M  V30 24 1 17 11
M  V30 25 1 22 16
M  V30 26 1 1 24
M  V30 27 1 1 25
M  V30 28 1 1 26
M  V30 29 1 4 27
M  V30 30 1 5 28
M  V30 31 1 7 29
M  V30 32 1 10 30
M  V30 33 1 10 31
M  V30 34 1 10 32
M  V30 35 1 11 33
M  V30 36 1 12 34
M  V30 37 1 12 35
M  V30 38 1 15 36
M  V30 39 1 19 37
M  V30 40 1 19 38
M  V30 41 1 23 39
M  V30 42 1 23 40
M  V30 END BOND
M  V30 END CTAB
M  END
