
     RDKit          3D

  0  0  0  0  0  0  0  0  0  0999 V3000
M  V30 BEGIN CTAB
M  V30 COUNTS 40 40 0 0 0
M  V30 BEGIN ATOM
M  V30 1 N 6.03382 2.09279 -1.3195 0
M  V30 2 N 5.21396 1.13802 -0.693617 0
M  V30 3 C 3.8327 1.04145 -0.977687 0
M  V30 4 O 3.34724 1.85402 -1.82622 0
M  V30 5 C 2.95601 0.00866964 -0.297902 0
M  V30 6 C 1.55464 0.167043 -0.766229 0
M  V30 7 C 0.581263 -0.75448 -0.161927 0
M  V30 8 C 0.693088 -2.21992 -0.387292 0
M  V30 9 O -0.493037 -2.8112 -0.213972 0
M  V30 10 N 1.76708 -2.94956 -0.725597 0
M  V30 11 N 2.81936 -3.66448 -1.05707 0
M  V30 12 N -0.785315 -0.29745 -0.264582 0
M  V30 13 C -1.54733 0.265887 0.784902 0
M  V30 14 O -0.996386 0.390327 1.92784 0
M  V30 15 C -2.92499 0.701885 0.595158 0
M  V30 16 C -3.31477 1.18994 -0.654107 0
M  V30 17 C -4.60543 1.61079 -0.895553 0
M  V30 18 C -5.56922 1.56762 0.0885314 0
M  V30 19 C -5.17597 1.08318 1.32633 0
M  V30 20 C -3.87843 0.656072 1.58268 0
M  V30 21 C -3.47828 0.144798 2.92959 0
M  V30 22 H 5.67326 3.02652 -1.00357 0
M  V30 23 H 7.03605 1.92428 -1.03762 0
M  V30 24 H 5.61701 0.463975 0.0131818 0
M  V30 25 H 2.98266 0.307726 0.787855 0
M  V30 26 H 3.37139 -0.966012 -0.438706 0
M  V30 27 H 1.2499 1.22072 -0.450739 0
M  V30 28 H 1.48475 0.207038 -1.89298 0
M  V30 29 H 0.788322 -0.65322 0.987651 0
M  V30 30 H 1.05767 -4.13624 -0.734346 0
M  V30 31 H 3.24138 -4.36965 -0.428137 0
M  V30 32 H 2.90778 -3.99232 -2.03312 0
M  V30 33 H -1.26691 -0.38312 -1.19585 0
M  V30 34 H -2.5534 1.22746 -1.44528 0
M  V30 35 H -4.87904 1.98904 -1.88446 0
M  V30 36 H -6.5909 1.89494 -0.0827883 0
M  V30 37 H -5.90345 1.03217 2.12506 0
M  V30 38 H -2.94398 -0.835369 2.80372 0
M  V30 39 H -4.42573 -0.0737883 3.48307 0
M  V30 40 H -2.87673 0.900435 3.43328 0
M  V30 END ATOM
M  V30 BEGIN BOND
M  V30 1 1 1 2
M  V30 2 1 2 3
M  V30 3 2 3 4
M  V30 4 1 3 5
M  V30 5 1 5 6
M  V30 6 1 6 7
M  V30 7 1 7 8
M  V30 8 2 8 9
M  V30 9 1 8 10
M  V30 10 1 10 11
M  V30 11 1 7 12
M  V30 12 1 12 13
M  V30 13 2 13 14
M  V30 14 1 13 15
M  V30 15 2 15 16
M  V30 16 1 16 17
M  V30 17 2 17 18
M  V30 18 1 18 19
M  V30 19 2 19 20
M  V30 20 1 20 21
M  V30 21 1 20 15
M  V30 22 1 1 22
M  V30 23 1 1 23
M  V30 24 1 2 24
M  V30 25 1 5 25
M  V30 26 1 5 26
M  V30 27 1 6 27
M  V30 28 1 6 28
M  V30 29 1 7 29
M  V30 30 1 10 30
M  V30 31 1 11 31
M  V30 32 1 11 32
M  V30 33 1 12 33
M  V30 34 1 16 34
M  V30 35 1 17 35
M  V30 36 1 18 36
M  V30 37 1 19 37
M  V30 38 1 21 38
M  V30 39 1 21 39
M  V30 40 1 21 40
M  V30 END BOND
M  V30 END CTAB
M  END
