
     RDKit          3D

  0  0  0  0  0  0  0  0  0  0999 V3000
M  V30 BEGIN CTAB
M  V30 COUNTS 26 26 0 0 0
M  V30 BEGIN ATOM
M  V30 1 C 4.60696 0.633102 -0.739133 0
M  V30 2 O 3.66707 0.324934 0.285724 0
M  V30 3 C 2.33449 0.0870492 0.0327633 0
M  V30 4 O 1.95813 0.151705 -1.16755 0
M  V30 5 C 1.36113 -0.233692 1.10413 0
M  V30 6 C -0.00664901 -0.448282 0.569311 0
M  V30 7 C -0.563871 -1.7084 0.435722 0
M  V30 8 C -1.85251 -1.85713 -0.0701024 0
M  V30 9 C -2.62464 -0.780875 -0.455979 0
M  V30 10 C -2.06151 0.474616 -0.319786 0
M  V30 11 C -0.778635 0.626242 0.183387 0
M  V30 12 O -0.239193 1.88685 0.309632 0
M  V30 13 N -2.82719 1.59463 -0.705702 0
M  V30 14 N -3.93849 -0.958912 -0.969064 0
M  V30 15 H 5.48556 -0.036531 -0.570121 0
M  V30 16 H 4.15811 0.429158 -1.74009 0
M  V30 17 H 4.96229 1.69267 -0.672559 0
M  V30 18 H 1.73184 -1.12449 1.66299 0
M  V30 19 H 1.3549 0.594095 1.84972 0
M  V30 20 H 0.0122433 -2.57603 0.72834 0
M  V30 21 H -2.29565 -2.84166 -0.177209 0
M  V30 22 H 0.668092 2.09746 0.658028 0
M  V30 23 H -3.60389 1.90888 -0.103453 0
M  V30 24 H -2.62521 2.10481 -1.57841 0
M  V30 25 H -4.25349 -0.431869 -1.80906 0
M  V30 26 H -4.6299 -1.60832 -0.540232 0
M  V30 END ATOM
M  V30 BEGIN BOND
M  V30 1 1 1 2
M  V30 2 1 2 3
M  V30 3 2 3 4
M  V30 4 1 3 5
M  V30 5 1 5 6
M  V30 6 2 6 7
M  V30 7 1 7 8
M  V30 8 2 8 9
M  V30 9 1 9 10
M  V30 10 2 10 11
M  V30 11 1 11 12
M  V30 12 1 10 13
M  V30 13 1 9 14
M  V30 14 1 11 6
M  V30 15 1 1 15
M  V30 16 1 1 16
M  V30 17 1 1 17
M  V30 18 1 5 18
M  V30 19 1 5 19
M  V30 20 1 7 20
M  V30 21 1 8 21
M  V30 22 1 12 22
M  V30 23 1 13 23
M  V30 24 1 13 24
M  V30 25 1 14 25
M  V30 26 1 14 26
M  V30 END BOND
M  V30 END CTAB
M  END
