
     RDKit          3D

  0  0  0  0  0  0  0  0  0  0999 V3000
M  V30 BEGIN CTAB
M  V30 COUNTS 25 25 0 0 0
M  V30 BEGIN ATOM
M  V30 1 C -1.83317 0.308643 0.319314 0 CFG=1
M  V30 2 C -1.97409 -0.610943 -0.844423 0
M  V30 3 N -1.88609 -0.393084 1.56369 0
M  V30 4 C -0.572222 1.14694 0.179043 0 CFG=1
M  V30 5 N -0.522846 2.003 1.34916 0
M  V30 6 C 0.629914 0.324793 0.0271923 0
M  V30 7 C 1.25766 0.185045 -1.19635 0
M  V30 8 C 2.39201 -0.585832 -1.35898 0
M  V30 9 C 2.9255 -1.23842 -0.289332 0
M  V30 10 C 2.3267 -1.12074 0.939484 0
M  V30 11 C 1.18127 -0.339414 1.0922 0
M  V30 12 H -2.68065 1.02991 0.299668 0
M  V30 13 H -2.35532 -0.0823274 -1.75758 0
M  V30 14 H -1.04478 -1.17237 -1.03764 0
M  V30 15 H -2.77488 -1.36371 -0.60789 0
M  V30 16 H -2.13341 -1.38633 1.50695 0
M  V30 17 H -2.3319 0.133572 2.33413 0
M  V30 18 H -0.735984 1.7945 -0.709559 0
M  V30 19 H -1.30938 2.68264 1.25255 0
M  V30 20 H 0.392985 2.45287 1.49354 0
M  V30 21 H 0.838494 0.697027 -2.03378 0
M  V30 22 H 2.88412 -0.691795 -2.33232 0
M  V30 23 H 3.80526 -1.83801 -0.40871 0
M  V30 24 H 2.75938 -1.64774 1.79804 0
M  V30 25 H 0.761426 -0.28821 2.0775 0
M  V30 END ATOM
M  V30 BEGIN BOND
M  V30 1 1 1 2
M  V30 2 1 1 3
M  V30 3 1 1 4
M  V30 4 1 4 5
M  V30 5 1 4 6
M  V30 6 2 6 7
M  V30 7 1 7 8
M  V30 8 2 8 9
M  V30 9 1 9 10
M  V30 10 2 10 11
M  V30 11 1 11 6
M  V30 12 1 1 12 CFG=1
M  V30 13 1 2 13
M  V30 14 1 2 14
M  V30 15 1 2 15
M  V30 16 1 3 16
M  V30 17 1 3 17
M  V30 18 1 4 18 CFG=3
M  V30 19 1 5 19
M  V30 20 1 5 20
M  V30 21 1 7 21
M  V30 22 1 8 22
M  V30 23 1 9 23
M  V30 24 1 10 24
M  V30 25 1 11 25
M  V30 END BOND
M  V30 END CTAB
M  END
