
     RDKit          3D

  0  0  0  0  0  0  0  0  0  0999 V3000
M  V30 BEGIN CTAB
M  V30 COUNTS 24 24 0 0 0
M  V30 BEGIN ATOM
M  V30 1 N -1.92619 1.30454 1.4594 0
M  V30 2 C -2.35797 0.781771 0.175728 0
M  V30 3 C -1.76303 -0.619074 0.0401506 0
M  V30 4 C -0.280532 -0.447172 0.110571 0
M  V30 5 N 0.46654 0.260017 -0.756133 0
M  V30 6 N 1.73966 0.200564 -0.394653 0
M  V30 7 C 1.83918 -0.550621 0.718919 0
M  V30 8 N 0.586441 -0.938908 1.01277 0
M  V30 9 N 3.04367 -0.848591 1.41229 0
M  V30 10 C 2.83845 0.845456 -1.09481 0
M  V30 11 C -2.11168 -1.22628 -1.29627 0
M  V30 12 H -2.41457 0.851156 2.26193 0
M  V30 13 H -1.99481 2.34276 1.50948 0
M  V30 14 H -1.94907 1.4638 -0.593226 0
M  V30 15 H -3.43698 0.697713 0.0689627 0
M  V30 16 H -2.04283 -1.25141 0.898463 0
M  V30 17 H 3.47315 -1.78963 1.31577 0
M  V30 18 H 3.49547 -0.130534 2.01408 0
M  V30 19 H 2.54225 1.06561 -2.15441 0
M  V30 20 H 3.09281 1.83235 -0.643912 0
M  V30 21 H 3.73709 0.203765 -1.08872 0
M  V30 22 H -2.77257 -2.09843 -1.15552 0
M  V30 23 H -1.18145 -1.5082 -1.87151 0
M  V30 24 H -2.62301 -0.440656 -1.90227 0
M  V30 END ATOM
M  V30 BEGIN BOND
M  V30 1 1 1 2
M  V30 2 1 2 3
M  V30 3 1 3 4
M  V30 4 2 4 5
M  V30 5 1 5 6
M  V30 6 1 6 7
M  V30 7 2 7 8
M  V30 8 1 7 9
M  V30 9 1 6 10
M  V30 10 1 3 11
M  V30 11 1 8 4
M  V30 12 1 1 12
M  V30 13 1 1 13
M  V30 14 1 2 14
M  V30 15 1 2 15
M  V30 16 1 3 16
M  V30 17 1 9 17
M  V30 18 1 9 18
M  V30 19 1 10 19
M  V30 20 1 10 20
M  V30 21 1 10 21
M  V30 22 1 11 22
M  V30 23 1 11 23
M  V30 24 1 11 24
M  V30 END BOND
M  V30 END CTAB
M  END
