
     RDKit          3D

  0  0  0  0  0  0  0  0  0  0999 V3000
M  V30 BEGIN CTAB
M  V30 COUNTS 29 29 0 0 0
M  V30 BEGIN ATOM
M  V30 1 C -3.33975 0.0112509 1.49661 0
M  V30 2 N -3.00145 -0.0534691 0.089309 0
M  V30 3 C -3.42042 0.998586 -0.811515 0
M  V30 4 C -2.27285 -1.14876 -0.418499 0
M  V30 5 N -2.94715 -2.17516 -0.841541 0
M  V30 6 N -0.865171 -1.10733 -0.455117 0
M  V30 7 C -0.135397 0.00928566 0.00523008 0
M  V30 8 O -0.653316 1.05166 0.481621 0
M  V30 9 C 1.33938 -0.0963713 -0.0983887 0
M  V30 10 N 1.95891 -1.17439 -0.59435 0
M  V30 11 C 3.31543 -1.24502 -0.678048 0
M  V30 12 Cl 4.12742 -2.64348 -1.32175 0
M  V30 13 C 4.08077 -0.186845 -0.244651 0
M  V30 14 N 5.50732 -0.268283 -0.335811 0
M  V30 15 N 3.47566 0.9049 0.25676 0
M  V30 16 C 2.10945 0.952716 0.330846 0
M  V30 17 N 1.45109 2.09807 0.857801 0
M  V30 18 H -3.33382 1.06017 1.84342 0
M  V30 19 H -2.60407 -0.624406 2.07108 0
M  V30 20 H -4.33207 -0.483439 1.63346 0
M  V30 21 H -2.71385 1.14227 -1.64218 0
M  V30 22 H -4.38875 0.704364 -1.25598 0
M  V30 23 H -3.49323 1.93434 -0.214285 0
M  V30 24 H -3.97696 -2.15148 -0.791082 0
M  V30 25 H -0.376137 -1.966 -0.849965 0
M  V30 26 H 6.0525 0.265147 0.365208 0
M  V30 27 H 6.01221 -0.815021 -1.04316 0
M  V30 28 H 1.14137 2.89896 0.267607 0
M  V30 29 H 1.28287 2.10774 1.89736 0
M  V30 END ATOM
M  V30 BEGIN BOND
M  V30 1 1 1 2
M  V30 2 1 2 3
M  V30 3 1 2 4
M  V30 4 2 4 5 CFG=2
M  V30 5 1 4 6
M  V30 6 1 6 7
M  V30 7 2 7 8
M  V30 8 1 7 9
M  V30 9 2 9 10
M  V30 10 1 10 11
M  V30 11 1 11 12
M  V30 12 2 11 13
M  V30 13 1 13 14
M  V30 14 1 13 15
M  V30 15 2 15 16
M  V30 16 1 16 17
M  V30 17 1 16 9
M  V30 18 1 1 18
M  V30 19 1 1 19
M  V30 20 1 1 20
M  V30 21 1 3 21
M  V30 22 1 3 22
M  V30 23 1 3 23
M  V30 24 1 5 24
M  V30 25 1 6 25
M  V30 26 1 14 26
M  V30 27 1 14 27
M  V30 28 1 17 28
M  V30 29 1 17 29
M  V30 END BOND
M  V30 END CTAB
M  END
