
     RDKit          3D

  0  0  0  0  0  0  0  0  0  0999 V3000
M  V30 BEGIN CTAB
M  V30 COUNTS 57 59 0 0 0
M  V30 BEGIN ATOM
M  V30 1 C 5.64583 -1.97953 -0.0320684 0 CFG=2
M  V30 2 C 6.73719 -0.914219 0.00118163 0
M  V30 3 C 6.36495 0.15771 -0.978308 0
M  V30 4 C 7.40139 1.2328 -0.991584 0
M  V30 5 O 8.34892 1.29444 -1.99158 0
M  V30 6 O 7.43115 2.1008 -0.0941173 0
M  V30 7 N 4.40067 -1.37774 0.334154 0
M  V30 8 C 3.35179 -1.24048 -0.609893 0
M  V30 9 O 3.50626 -1.65007 -1.78274 0
M  V30 10 C 2.06786 -0.6205 -0.251755 0
M  V30 11 C 1.66949 -0.459685 1.04732 0
M  V30 12 C 0.46859 0.152062 1.35807 0
M  V30 13 C -0.411518 0.64333 0.389152 0
M  V30 14 C 0.0151442 0.466277 -0.917067 0
M  V30 15 C 1.21241 -0.144311 -1.22239 0
M  V30 16 N -1.61355 1.31367 0.70168 0
M  V30 17 C -2.00354 1.61742 2.06599 0
M  V30 18 C -1.93788 3.10278 2.17703 0
M  V30 19 C -1.8859 4.30254 2.28505 0
M  V30 20 C -2.56869 1.74077 -0.294153 0
M  V30 21 C -3.66236 0.828939 -0.593946 0
M  V30 22 N -4.87261 1.02728 -0.00185736 0
M  V30 23 C -5.91581 0.228657 -0.254726 0
M  V30 24 C -5.82105 -0.83856 -1.12808 0
M  V30 25 N -4.63688 -1.03105 -1.70606 0
M  V30 26 C -3.564 -0.222951 -1.45768 0
M  V30 27 N -6.89909 -1.60867 -1.35457 0
M  V30 28 C -8.09659 -1.41009 -0.777481 0
M  V30 29 N -9.21573 -2.25142 -1.04864 0
M  V30 30 N -8.20795 -0.365706 0.0827763 0
M  V30 31 C -7.15619 0.428556 0.338442 0
M  V30 32 N -7.27031 1.53448 1.24046 0
M  V30 33 C 6.08112 -3.04858 0.897107 0
M  V30 34 O 7.26779 -3.74338 0.718138 0
M  V30 35 O 5.3166 -3.29846 1.86572 0
M  V30 36 H 5.59821 -2.33408 -1.09532 0
M  V30 37 H 6.80422 -0.525616 1.0194 0
M  V30 38 H 7.70977 -1.37988 -0.322721 0
M  V30 39 H 6.35182 -0.299838 -1.99369 0
M  V30 40 H 5.38013 0.598909 -0.765556 0
M  V30 41 H 9.25249 1.69254 -1.91743 0
M  V30 42 H 4.26418 -1.03045 1.32361 0
M  V30 43 H 2.30516 -0.815806 1.84429 0
M  V30 44 H 0.170004 0.268418 2.39673 0
M  V30 45 H -0.643668 0.838919 -1.70494 0
M  V30 46 H 1.46221 -0.237311 -2.27365 0
M  V30 47 H -1.43642 1.18356 2.85944 0
M  V30 48 H -3.075 1.34517 2.23219 0
M  V30 49 H -1.84391 5.36374 2.38683 0
M  V30 50 H -3.07004 2.71735 0.0438692 0
M  V30 51 H -2.06061 2.11802 -1.23856 0
M  V30 52 H -2.67123 -0.484994 -1.99811 0
M  V30 53 H -10.1592 -1.90118 -0.794738 0
M  V30 54 H -9.11995 -3.18458 -1.48264 0
M  V30 55 H -8.21343 1.99361 1.29467 0
M  V30 56 H -6.51802 1.90511 1.8261 0
M  V30 57 H 7.96581 -3.79874 1.44136 0
M  V30 END ATOM
M  V30 BEGIN BOND
M  V30 1 1 1 2
M  V30 2 1 2 3
M  V30 3 1 3 4
M  V30 4 1 4 5
M  V30 5 2 4 6
M  V30 6 1 1 7
M  V30 7 1 7 8
M  V30 8 2 8 9
M  V30 9 1 8 10
M  V30 10 2 10 11
M  V30 11 1 11 12
M  V30 12 2 12 13
M  V30 13 1 13 14
M  V30 14 2 14 15
M  V30 15 1 13 16
M  V30 16 1 16 17
M  V30 17 1 17 18
M  V30 18 3 18 19
M  V30 19 1 16 20
M  V30 20 1 20 21
M  V30 21 2 21 22
M  V30 22 1 22 23
M  V30 23 2 23 24
M  V30 24 1 24 25
M  V30 25 2 25 26
M  V30 26 1 24 27
M  V30 27 2 27 28
M  V30 28 1 28 29
M  V30 29 1 28 30
M  V30 30 2 30 31
M  V30 31 1 31 32
M  V30 32 1 1 33
M  V30 33 1 33 34
M  V30 34 2 33 35
M  V30 35 1 15 10
M  V30 36 1 26 21
M  V30 37 1 31 23
M  V30 38 1 1 36 CFG=3
M  V30 39 1 2 37
M  V30 40 1 2 38
M  V30 41 1 3 39
M  V30 42 1 3 40
M  V30 43 1 5 41
M  V30 44 1 7 42
M  V30 45 1 11 43
M  V30 46 1 12 44
M  V30 47 1 14 45
M  V30 48 1 15 46
M  V30 49 1 17 47
M  V30 50 1 17 48
M  V30 51 1 19 49
M  V30 52 1 20 50
M  V30 53 1 20 51
M  V30 54 1 26 52
M  V30 55 1 29 53
M  V30 56 1 29 54
M  V30 57 1 32 55
M  V30 58 1 32 56
M  V30 59 1 34 57
M  V30 END BOND
M  V30 END CTAB
M  END
