
     RDKit          3D

  0  0  0  0  0  0  0  0  0  0999 V3000
M  V30 BEGIN CTAB
M  V30 COUNTS 30 30 0 0 0
M  V30 BEGIN ATOM
M  V30 1 N -3.42787 1.91807 -0.153428 0
M  V30 2 C -2.17767 1.42485 0.307135 0
M  V30 3 C -1.84856 0.144924 -0.461632 0
M  V30 4 C -0.524412 -0.340873 0.054531 0 CFG=2
M  V30 5 C 0.582569 0.649097 -0.143684 0
M  V30 6 N 1.78656 -0.118764 -0.407641 0
M  V30 7 C 1.45935 -1.49902 -0.234164 0
M  V30 8 C 0.000531887 -1.53218 -0.709685 0 CFG=1
M  V30 9 C -0.662793 -2.81591 -0.295653 0
M  V30 10 S 2.98543 0.413 0.731813 0
M  V30 11 O 2.45711 0.176082 2.11568 0
M  V30 12 O 4.25668 -0.369998 0.585596 0
M  V30 13 N 3.33124 2.08422 0.513675 0
M  V30 14 H -3.52922 2.88373 -0.178062 0
M  V30 15 H -3.9343 1.29462 -0.673291 0
M  V30 16 H -2.19359 1.2283 1.39541 0
M  V30 17 H -1.43048 2.21763 0.104132 0
M  V30 18 H -1.8176 0.343157 -1.53281 0
M  V30 19 H -2.609 -0.603114 -0.228164 0
M  V30 20 H -0.601586 -0.608218 1.12414 0
M  V30 21 H 0.695591 1.33358 0.717528 0
M  V30 22 H 0.336818 1.27111 -1.02751 0
M  V30 23 H 1.40797 -1.69902 0.86039 0
M  V30 24 H 2.08373 -2.19455 -0.784228 0
M  V30 25 H -0.0130014 -1.34443 -1.78763 0
M  V30 26 H -1.67636 -2.82981 -0.706747 0
M  V30 27 H -0.0908637 -3.66472 -0.67705 0
M  V30 28 H -0.700947 -2.8309 0.813997 0
M  V30 29 H 3.08574 2.39347 -0.467351 0
M  V30 30 H 2.76892 2.67567 1.1447 0
M  V30 END ATOM
M  V30 BEGIN BOND
M  V30 1 1 1 2
M  V30 2 1 2 3
M  V30 3 1 3 4
M  V30 4 1 4 5
M  V30 5 1 5 6
M  V30 6 1 6 7
M  V30 7 1 7 8
M  V30 8 1 8 9
M  V30 9 1 6 10
M  V30 10 2 10 11
M  V30 11 2 10 12
M  V30 12 1 10 13
M  V30 13 1 8 4
M  V30 14 1 1 14
M  V30 15 1 1 15
M  V30 16 1 2 16
M  V30 17 1 2 17
M  V30 18 1 3 18
M  V30 19 1 3 19
M  V30 20 1 4 20 CFG=1
M  V30 21 1 5 21
M  V30 22 1 5 22
M  V30 23 1 7 23
M  V30 24 1 7 24
M  V30 25 1 8 25 CFG=3
M  V30 26 1 9 26
M  V30 27 1 9 27
M  V30 28 1 9 28
M  V30 29 1 13 29
M  V30 30 1 13 30
M  V30 END BOND
M  V30 END CTAB
M  END
