
     RDKit          3D

  0  0  0  0  0  0  0  0  0  0999 V3000
M  V30 BEGIN CTAB
M  V30 COUNTS 50 53 0 0 0
M  V30 BEGIN ATOM
M  V30 1 N -3.50189 5.53331 0.831356 0
M  V30 2 C -2.41513 4.63107 0.754895 0
M  V30 3 N -2.57711 3.29301 0.796581 0
M  V30 4 C -1.58437 2.42925 0.577302 0
M  V30 5 C -0.362374 3.00044 0.310702 0
M  V30 6 N 0.624855 2.1759 -0.0350783 0
M  V30 7 C 0.506667 0.816831 -0.13585 0
M  V30 8 C 1.61416 0.118571 -0.732543 0
M  V30 9 C 2.77273 -0.47922 -0.107891 0
M  V30 10 C 3.94334 -0.552714 -0.925826 0
M  V30 11 C 5.14386 -1.04202 -0.570794 0
M  V30 12 C 5.28901 -1.5264 0.702048 0
M  V30 13 C 4.18995 -1.494 1.57358 0
M  V30 14 C 2.96208 -0.97552 1.1495 0
M  V30 15 C 6.28426 -1.06081 -1.57507 0
M  V30 16 F 6.95118 -2.25536 -1.54018 0
M  V30 17 F 5.67305 -1.04536 -2.85415 0
M  V30 18 F 7.05778 0.0531011 -1.516 0
M  V30 19 C -0.739016 0.240355 0.157888 0
M  V30 20 C -0.79812 -1.1843 -0.0612356 0
M  V30 21 C -1.95354 -2.01735 0.174688 0
M  V30 22 C -1.88229 -3.19487 0.914061 0
M  V30 23 C -2.94354 -4.05617 1.08305 0
M  V30 24 C -4.15941 -3.75042 0.496772 0
M  V30 25 C -4.2804 -2.58932 -0.247297 0
M  V30 26 C -3.18208 -1.74795 -0.393214 0
M  V30 27 C -5.58094 -2.26272 -0.905682 0
M  V30 28 F -6.61987 -2.33014 -0.00457556 0
M  V30 29 F -5.86336 -3.229 -1.87027 0
M  V30 30 F -5.47046 -1.00795 -1.49198 0
M  V30 31 N -1.75049 1.07798 0.510755 0
M  V30 32 C -0.158652 4.38776 0.27647 0
M  V30 33 N 1.20435 4.77002 0.0730717 0
M  V30 34 N -1.19112 5.16938 0.494132 0
M  V30 35 H -3.96421 5.77789 -0.0992343 0
M  V30 36 H -3.8399 5.94658 1.67927 0
M  V30 37 H 1.20782 -0.701688 -1.45379 0
M  V30 38 H 2.04327 0.810568 -1.59756 0
M  V30 39 H 3.81756 -0.181833 -1.93206 0
M  V30 40 H 6.2049 -1.93535 1.03774 0
M  V30 41 H 4.26991 -1.87284 2.57707 0
M  V30 42 H 2.11271 -0.951348 1.85639 0
M  V30 43 H 0.0777894 -1.63667 0.503785 0
M  V30 44 H -0.459849 -1.34382 -1.15109 0
M  V30 45 H -0.943619 -3.4525 1.38504 0
M  V30 46 H -2.85483 -4.97311 1.64714 0
M  V30 47 H -5.00228 -4.39736 0.585099 0
M  V30 48 H -3.37231 -0.845249 -0.986588 0
M  V30 49 H 1.69792 5.41578 0.749553 0
M  V30 50 H 1.80204 4.44558 -0.709984 0
M  V30 END ATOM
M  V30 BEGIN BOND
M  V30 1 1 1 2
M  V30 2 2 2 3
M  V30 3 1 3 4
M  V30 4 2 4 5
M  V30 5 1 5 6
M  V30 6 2 6 7
M  V30 7 1 7 8
M  V30 8 1 8 9
M  V30 9 2 9 10
M  V30 10 1 10 11
M  V30 11 2 11 12
M  V30 12 1 12 13
M  V30 13 2 13 14
M  V30 14 1 11 15
M  V30 15 1 15 16
M  V30 16 1 15 17
M  V30 17 1 15 18
M  V30 18 1 7 19
M  V30 19 1 19 20
M  V30 20 1 20 21
M  V30 21 2 21 22
M  V30 22 1 22 23
M  V30 23 2 23 24
M  V30 24 1 24 25
M  V30 25 2 25 26
M  V30 26 1 25 27
M  V30 27 1 27 28
M  V30 28 1 27 29
M  V30 29 1 27 30
M  V30 30 2 19 31
M  V30 31 1 5 32
M  V30 32 1 32 33
M  V30 33 2 32 34
M  V30 34 1 34 2
M  V30 35 1 31 4
M  V30 36 1 14 9
M  V30 37 1 26 21
M  V30 38 1 1 35
M  V30 39 1 1 36
M  V30 40 1 8 37
M  V30 41 1 8 38
M  V30 42 1 10 39
M  V30 43 1 12 40
M  V30 44 1 13 41
M  V30 45 1 14 42
M  V30 46 1 20 43
M  V30 47 1 20 44
M  V30 48 1 22 45
M  V30 49 1 23 46
M  V30 50 1 24 47
M  V30 51 1 26 48
M  V30 52 1 33 49
M  V30 53 1 33 50
M  V30 END BOND
M  V30 END CTAB
M  END
