
     RDKit          3D

  0  0  0  0  0  0  0  0  0  0999 V3000
M  V30 BEGIN CTAB
M  V30 COUNTS 22 22 0 0 0
M  V30 BEGIN ATOM
M  V30 1 N 3.60649 0.202621 -0.242357 0
M  V30 2 C 2.47181 -0.584914 0.0635019 0
M  V30 3 N 2.65328 -1.79355 0.436646 0
M  V30 4 C 1.10767 -0.0889937 -0.0250657 0
M  V30 5 C 0.813908 1.21097 -0.421398 0
M  V30 6 C -0.480033 1.68437 -0.506352 0
M  V30 7 C -1.54219 0.860859 -0.192838 0
M  V30 8 C -1.27781 -0.435031 0.203676 0
M  V30 9 C 0.027089 -0.889436 0.282078 0
M  V30 10 C -2.42011 -1.29812 0.53373 0
M  V30 11 N -2.88175 1.31575 -0.269665 0
M  V30 12 H 4.05862 0.238623 -1.18606 0
M  V30 13 H 4.01954 0.788545 0.531609 0
M  V30 14 H 3.61798 -2.17106 0.507739 0
M  V30 15 H 1.67295 1.83508 -0.661705 0
M  V30 16 H -0.675347 2.70704 -0.819922 0
M  V30 17 H 0.203506 -1.90976 0.595866 0
M  V30 18 H -3.0192 -0.940653 1.38453 0
M  V30 19 H -3.08305 -1.38206 -0.375154 0
M  V30 20 H -2.06462 -2.32282 0.760494 0
M  V30 21 H -3.14236 2.32738 -0.276996 0
M  V30 22 H -3.66637 0.645163 -0.322363 0
M  V30 END ATOM
M  V30 BEGIN BOND
M  V30 1 1 1 2
M  V30 2 2 2 3 CFG=2
M  V30 3 1 2 4
M  V30 4 2 4 5
M  V30 5 1 5 6
M  V30 6 2 6 7
M  V30 7 1 7 8
M  V30 8 2 8 9
M  V30 9 1 8 10
M  V30 10 1 7 11
M  V30 11 1 9 4
M  V30 12 1 1 12
M  V30 13 1 1 13
M  V30 14 1 3 14
M  V30 15 1 5 15
M  V30 16 1 6 16
M  V30 17 1 9 17
M  V30 18 1 10 18
M  V30 19 1 10 19
M  V30 20 1 10 20
M  V30 21 1 11 21
M  V30 22 1 11 22
M  V30 END BOND
M  V30 END CTAB
M  END
