
     RDKit          3D

  0  0  0  0  0  0  0  0  0  0999 V3000
M  V30 BEGIN CTAB
M  V30 COUNTS 31 32 0 0 0
M  V30 BEGIN ATOM
M  V30 1 C -4.3813 0.794009 0.451898 0
M  V30 2 C -3.11107 0.831121 -0.391061 0
M  V30 3 C -2.07426 -0.1293 0.170105 0
M  V30 4 C -2.52826 -1.55798 0.204283 0
M  V30 5 C -1.42872 -1.05297 -0.763145 0
M  V30 6 N -0.167766 -1.68392 -0.541907 0
M  V30 7 C 1.06834 -1.02249 -0.358469 0
M  V30 8 C 2.22001 -1.7476 -0.132847 0
M  V30 9 C 3.44519 -1.12059 0.0487333 0
M  V30 10 C 3.52429 0.252577 0.00476649 0
M  V30 11 C 2.36259 0.966643 -0.222109 0
M  V30 12 C 1.123 0.352216 -0.406683 0
M  V30 13 N 2.42054 2.36709 -0.270795 0
M  V30 14 N 4.78168 0.933994 0.189521 0
M  V30 15 H -5.25246 0.421739 -0.140545 0
M  V30 16 H -4.61914 1.76056 0.905039 0
M  V30 17 H -4.23673 0.0454672 1.26352 0
M  V30 18 H -3.40109 0.587285 -1.42093 0
M  V30 19 H -2.75367 1.88708 -0.355786 0
M  V30 20 H -1.52221 0.249907 1.04411 0
M  V30 21 H -2.22227 -2.13597 1.0747 0
M  V30 22 H -3.46954 -1.8576 -0.284483 0
M  V30 23 H -1.72358 -1.03803 -1.85285 0
M  V30 24 H -0.189161 -2.74842 -0.517601 0
M  V30 25 H 2.16816 -2.8332 -0.0962824 0
M  V30 26 H 4.35018 -1.69066 0.226024 0
M  V30 27 H 0.233814 0.974268 -0.584356 0
M  V30 28 H 2.29017 2.90864 0.604186 0
M  V30 29 H 2.58933 2.89105 -1.14954 0
M  V30 30 H 4.98844 1.82093 -0.3199 0
M  V30 31 H 5.51549 0.574156 0.824998 0
M  V30 END ATOM
M  V30 BEGIN BOND
M  V30 1 1 1 2
M  V30 2 1 2 3
M  V30 3 1 3 4
M  V30 4 1 4 5
M  V30 5 1 5 6
M  V30 6 1 6 7
M  V30 7 2 7 8
M  V30 8 1 8 9
M  V30 9 2 9 10
M  V30 10 1 10 11
M  V30 11 2 11 12
M  V30 12 1 11 13
M  V30 13 1 10 14
M  V30 14 1 5 3
M  V30 15 1 12 7
M  V30 16 1 1 15
M  V30 17 1 1 16
M  V30 18 1 1 17
M  V30 19 1 2 18
M  V30 20 1 2 19
M  V30 21 1 3 20
M  V30 22 1 4 21
M  V30 23 1 4 22
M  V30 24 1 5 23
M  V30 25 1 6 24
M  V30 26 1 8 25
M  V30 27 1 9 26
M  V30 28 1 12 27
M  V30 29 1 13 28
M  V30 30 1 13 29
M  V30 31 1 14 30
M  V30 32 1 14 31
M  V30 END BOND
M  V30 END CTAB
M  END
