
     RDKit          3D

  0  0  0  0  0  0  0  0  0  0999 V3000
M  V30 BEGIN CTAB
M  V30 COUNTS 33 32 0 0 0
M  V30 BEGIN ATOM
M  V30 1 N 5.61685 1.10935 0.168541 0
M  V30 2 C 4.19073 1.28902 -0.00514025 0
M  V30 3 C 3.45658 -0.0304291 -0.0718001 0
M  V30 4 C 1.99044 0.28118 -0.252393 0
M  V30 5 C 1.15443 -0.982684 -0.332118 0
M  V30 6 C -0.294996 -0.510231 -0.513302 0
M  V30 7 C -1.23679 -1.66209 -0.607481 0
M  V30 8 C -2.6395 -1.14089 -0.790673 0
M  V30 9 C -3.05372 -0.278581 0.360261 0
M  V30 10 C -4.48232 0.244904 0.177679 0
M  V30 11 N -4.60172 1.03132 -1.01796 0
M  V30 12 H 6.12703 1.64169 -0.578052 0
M  V30 13 H 5.87126 1.55423 1.07914 0
M  V30 14 H 3.94348 1.84985 -0.9359 0
M  V30 15 H 3.73417 1.86167 0.84142 0
M  V30 16 H 3.84761 -0.69983 -0.852217 0
M  V30 17 H 3.56355 -0.560646 0.895381 0
M  V30 18 H 1.80733 0.831676 -1.20727 0
M  V30 19 H 1.66961 0.859293 0.636699 0
M  V30 20 H 1.49052 -1.53248 -1.23068 0
M  V30 21 H 1.26714 -1.60609 0.571114 0
M  V30 22 H -0.475983 0.150082 0.35786 0
M  V30 23 H -0.330449 0.0459198 -1.4648 0
M  V30 24 H -1.22376 -2.30097 0.305333 0
M  V30 25 H -0.933611 -2.26548 -1.49555 0
M  V30 26 H -3.36521 -1.94376 -1.00917 0
M  V30 27 H -2.62343 -0.471192 -1.69742 0
M  V30 28 H -2.96705 -0.812888 1.3131 0
M  V30 29 H -2.43008 0.647243 0.405227 0
M  V30 30 H -5.12923 -0.644398 0.180581 0
M  V30 31 H -4.70654 0.909778 1.03889 0
M  V30 32 H -5.48017 1.57376 -0.985278 0
M  V30 33 H -3.75619 1.56168 -1.26137 0
M  V30 END ATOM
M  V30 BEGIN BOND
M  V30 1 1 1 2
M  V30 2 1 2 3
M  V30 3 1 3 4
M  V30 4 1 4 5
M  V30 5 1 5 6
M  V30 6 1 6 7
M  V30 7 1 7 8
M  V30 8 1 8 9
M  V30 9 1 9 10
M  V30 10 1 10 11
M  V30 11 1 1 12
M  V30 12 1 1 13
M  V30 13 1 2 14
M  V30 14 1 2 15
M  V30 15 1 3 16
M  V30 16 1 3 17
M  V30 17 1 4 18
M  V30 18 1 4 19
M  V30 19 1 5 20
M  V30 20 1 5 21
M  V30 21 1 6 22
M  V30 22 1 6 23
M  V30 23 1 7 24
M  V30 24 1 7 25
M  V30 25 1 8 26
M  V30 26 1 8 27
M  V30 27 1 9 28
M  V30 28 1 9 29
M  V30 29 1 10 30
M  V30 30 1 10 31
M  V30 31 1 11 32
M  V30 32 1 11 33
M  V30 END BOND
M  V30 END CTAB
M  END
