
     RDKit          3D

  0  0  0  0  0  0  0  0  0  0999 V3000
M  V30 BEGIN CTAB
M  V30 COUNTS 21 21 0 0 0
M  V30 BEGIN ATOM
M  V30 1 O 1.36225 2.42821 1.3313 0 CHG=-1
M  V30 2 N 0.0552006 2.24122 1.05275 0 CHG=1
M  V30 3 O -0.692008 3.25532 1.2077 0
M  V30 4 C -0.58502 1.06621 0.607005 0
M  V30 5 C -1.93738 0.8482 0.970599 0
M  V30 6 C -2.61198 -0.282309 0.584658 0
M  V30 7 C -1.94185 -1.21789 -0.174645 0
M  V30 8 C -0.640522 -1.05867 -0.553671 0
M  V30 9 C 0.0314918 0.112955 -0.145781 0
M  V30 10 S 1.65947 0.303434 -0.723594 0
M  V30 11 O 1.94675 1.6846 -1.18959 0
M  V30 12 O 1.92246 -0.663298 -1.87493 0
M  V30 13 N 2.73784 -0.13654 0.544495 0
M  V30 14 N 0.0624284 -2.01534 -1.33648 0
M  V30 15 H -2.40204 1.60608 1.55628 0
M  V30 16 H -3.63452 -0.384128 0.894841 0
M  V30 17 H -2.47192 -2.10453 -0.474251 0
M  V30 18 H 2.78885 -1.18979 0.61621 0
M  V30 19 H 3.66309 0.285553 0.315984 0
M  V30 20 H -0.00162953 -2.09867 -2.36908 0
M  V30 21 H 0.689044 -2.68062 -0.839785 0
M  V30 END ATOM
M  V30 BEGIN BOND
M  V30 1 1 1 2
M  V30 2 2 2 3
M  V30 3 1 2 4
M  V30 4 2 4 5
M  V30 5 1 5 6
M  V30 6 2 6 7
M  V30 7 1 7 8
M  V30 8 2 8 9
M  V30 9 1 9 10
M  V30 10 2 10 11
M  V30 11 2 10 12
M  V30 12 1 10 13
M  V30 13 1 8 14
M  V30 14 1 9 4
M  V30 15 1 5 15
M  V30 16 1 6 16
M  V30 17 1 7 17
M  V30 18 1 13 18
M  V30 19 1 13 19
M  V30 20 1 14 20
M  V30 21 1 14 21
M  V30 END BOND
M  V30 END CTAB
M  END
