
     RDKit          3D

  0  0  0  0  0  0  0  0  0  0999 V3000
M  V30 BEGIN CTAB
M  V30 COUNTS 34 35 0 0 0
M  V30 BEGIN ATOM
M  V30 1 C 2.07048 -2.23884 -2.24626 0
M  V30 2 O 1.24556 -1.36639 -1.5505 0
M  V30 3 C 1.66091 -0.343543 -0.723622 0
M  V30 4 C 2.99126 -0.087834 -0.519709 0
M  V30 5 C 3.39435 0.956152 0.32348 0
M  V30 6 N 4.76875 1.22388 0.532602 0
M  V30 7 C 2.44821 1.74029 0.96017 0
M  V30 8 C 1.1146 1.48997 0.762192 0
M  V30 9 C 0.729267 0.443563 -0.084313 0
M  V30 10 C -0.710808 0.261597 -0.286299 0
M  V30 11 C -1.56393 0.0459825 0.787184 0
M  V30 12 O -0.9844 -0.0193634 2.05642 0
M  V30 13 C -1.80006 -0.245269 3.19491 0
M  V30 14 C -2.93586 -0.101566 0.635737 0
M  V30 15 C -3.50393 -0.0374121 -0.614071 0
M  V30 16 N -4.9237 -0.193476 -0.816397 0
M  V30 17 C -2.64275 0.178765 -1.69799 0
M  V30 18 C -1.2829 0.326014 -1.5485 0
M  V30 19 H 2.10367 -3.2665 -1.77305 0
M  V30 20 H 1.62503 -2.41144 -3.24606 0
M  V30 21 H 3.11062 -1.87699 -2.41655 0
M  V30 22 H 3.80099 -0.63914 -0.971772 0
M  V30 23 H 5.28231 0.732959 1.28095 0
M  V30 24 H 5.24846 1.90096 -0.0658306 0
M  V30 25 H 2.74639 2.56993 1.62665 0
M  V30 26 H 0.412085 2.12782 1.27947 0
M  V30 27 H -2.10017 -1.34365 3.16007 0
M  V30 28 H -2.71053 0.369527 3.2052 0
M  V30 29 H -1.26147 -0.126153 4.14588 0
M  V30 30 H -3.58466 -0.26698 1.48924 0
M  V30 31 H -5.53767 0.629612 -0.996236 0
M  V30 32 H -5.3798 -1.13868 -0.793028 0
M  V30 33 H -3.15591 0.218232 -2.67226 0
M  V30 34 H -0.674362 0.487987 -2.41772 0
M  V30 END ATOM
M  V30 BEGIN BOND
M  V30 1 1 1 2
M  V30 2 1 2 3
M  V30 3 2 3 4
M  V30 4 1 4 5
M  V30 5 1 5 6
M  V30 6 2 5 7
M  V30 7 1 7 8
M  V30 8 2 8 9
M  V30 9 1 9 10
M  V30 10 2 10 11
M  V30 11 1 11 12
M  V30 12 1 12 13
M  V30 13 1 11 14
M  V30 14 2 14 15
M  V30 15 1 15 16
M  V30 16 1 15 17
M  V30 17 2 17 18
M  V30 18 1 9 3
M  V30 19 1 18 10
M  V30 20 1 1 19
M  V30 21 1 1 20
M  V30 22 1 1 21
M  V30 23 1 4 22
M  V30 24 1 6 23
M  V30 25 1 6 24
M  V30 26 1 7 25
M  V30 27 1 8 26
M  V30 28 1 13 27
M  V30 29 1 13 28
M  V30 30 1 13 29
M  V30 31 1 14 30
M  V30 32 1 16 31
M  V30 33 1 16 32
M  V30 34 1 17 33
M  V30 35 1 18 34
M  V30 END BOND
M  V30 END CTAB
M  END
