
     RDKit          3D

  0  0  0  0  0  0  0  0  0  0999 V3000
M  V30 BEGIN CTAB
M  V30 COUNTS 53 55 0 0 0
M  V30 BEGIN ATOM
M  V30 1 O -2.42783 1.2271 1.18718 0
M  V30 2 C -2.83189 1.3785 0.0310951 0
M  V30 3 C -4.0594 0.64523 -0.375526 0
M  V30 4 C -3.95854 -0.83707 -0.345045 0
M  V30 5 C -3.66281 -1.47294 0.966451 0
M  V30 6 C -4.7766 -1.1756 1.95029 0
M  V30 7 O -5.98244 -1.00898 1.26782 0
M  V30 8 C -6.10385 -1.91099 0.21314 0
M  V30 9 C -5.19896 -1.50087 -0.93404 0
M  V30 10 N -4.45311 1.11359 -1.70559 0
M  V30 11 N -2.13651 2.22966 -0.873014 0
M  V30 12 C -0.965248 2.97013 -0.675918 0
M  V30 13 C 0.349879 2.35212 -0.493536 0
M  V30 14 C 0.589382 1.38752 0.604871 0
M  V30 15 C 2.0605 0.977282 0.621271 0
M  V30 16 N 2.65862 -0.0226152 -0.00272857 0
M  V30 17 N 3.9667 -0.00672178 0.298814 0
M  V30 18 C 4.23236 1.0205 1.13467 0
M  V30 19 C 3.0193 1.64915 1.34173 0
M  V30 20 N 5.50674 1.35051 1.66636 0
M  V30 21 C 4.96768 -0.904367 -0.158663 0
M  V30 22 C 5.52659 -1.81063 0.714992 0
M  V30 23 C 6.5112 -2.70807 0.30552 0
M  V30 24 C 6.95953 -2.71579 -0.998378 0
M  V30 25 C 6.40724 -1.81554 -1.87483 0
M  V30 26 C 5.42661 -0.925459 -1.45662 0
M  V30 27 H -4.86098 0.967343 0.319162 0
M  V30 28 H -3.12475 -1.1157 -1.04346 0
M  V30 29 H -2.7207 -1.10896 1.3902 0
M  V30 30 H -3.57556 -2.58638 0.809634 0
M  V30 31 H -4.90188 -2.0569 2.62785 0
M  V30 32 H -4.52869 -0.255978 2.48411 0
M  V30 33 H -5.80729 -2.94203 0.501792 0
M  V30 34 H -7.16615 -1.9429 -0.0827935 0
M  V30 35 H -4.95029 -2.3872 -1.52877 0
M  V30 36 H -5.7507 -0.779491 -1.59355 0
M  V30 37 H -3.77385 0.736356 -2.37474 0
M  V30 38 H -4.61075 2.12141 -1.75187 0
M  V30 39 H -2.59084 2.30309 -1.85428 0
M  V30 40 H -0.879 3.71062 -1.54394 0
M  V30 41 H -1.11488 3.67628 0.225969 0
M  V30 42 H 0.778585 1.95284 -1.47852 0
M  V30 43 H 1.08067 3.21906 -0.303321 0
M  V30 44 H 0.381468 1.83177 1.57584 0
M  V30 45 H 0.00534777 0.43677 0.490786 0
M  V30 46 H 2.89347 2.50872 1.9641 0
M  V30 47 H 5.61186 1.36608 2.70026 0
M  V30 48 H 6.34154 1.57756 1.09088 0
M  V30 49 H 5.23741 -1.88028 1.76406 0
M  V30 50 H 6.93758 -3.40715 0.993507 0
M  V30 51 H 7.72356 -3.40089 -1.34758 0
M  V30 52 H 6.75109 -1.81578 -2.89073 0
M  V30 53 H 4.98858 -0.213922 -2.1449 0
M  V30 END ATOM
M  V30 BEGIN BOND
M  V30 1 2 1 2
M  V30 2 1 2 3
M  V30 3 1 3 4
M  V30 4 1 4 5
M  V30 5 1 5 6
M  V30 6 1 6 7
M  V30 7 1 7 8
M  V30 8 1 8 9
M  V30 9 1 3 10
M  V30 10 1 2 11
M  V30 11 1 11 12
M  V30 12 1 12 13
M  V30 13 1 13 14
M  V30 14 1 14 15
M  V30 15 2 15 16
M  V30 16 1 16 17
M  V30 17 1 17 18
M  V30 18 2 18 19
M  V30 19 1 18 20
M  V30 20 1 17 21
M  V30 21 2 21 22
M  V30 22 1 22 23
M  V30 23 2 23 24
M  V30 24 1 24 25
M  V30 25 2 25 26
M  V30 26 1 9 4
M  V30 27 1 19 15
M  V30 28 1 26 21
M  V30 29 1 3 27
M  V30 30 1 4 28
M  V30 31 1 5 29
M  V30 32 1 5 30
M  V30 33 1 6 31
M  V30 34 1 6 32
M  V30 35 1 8 33
M  V30 36 1 8 34
M  V30 37 1 9 35
M  V30 38 1 9 36
M  V30 39 1 10 37
M  V30 40 1 10 38
M  V30 41 1 11 39
M  V30 42 1 12 40
M  V30 43 1 12 41
M  V30 44 1 13 42
M  V30 45 1 13 43
M  V30 46 1 14 44
M  V30 47 1 14 45
M  V30 48 1 19 46
M  V30 49 1 20 47
M  V30 50 1 20 48
M  V30 51 1 22 49
M  V30 52 1 23 50
M  V30 53 1 24 51
M  V30 54 1 25 52
M  V30 55 1 26 53
M  V30 END BOND
M  V30 END CTAB
M  END
