
     RDKit          3D

  0  0  0  0  0  0  0  0  0  0999 V3000
M  V30 BEGIN CTAB
M  V30 COUNTS 33 33 0 0 0
M  V30 BEGIN ATOM
M  V30 1 C 2.95928 1.79321 -1.25608 0
M  V30 2 C 2.47528 0.347725 -1.11067 0
M  V30 3 N 1.65478 0.149298 0.0482028 0
M  V30 4 C 2.2317 0.255313 1.36891 0
M  V30 5 C 3.14677 -0.98145 1.52343 0
M  V30 6 C 0.289005 -0.187623 -0.046415 0
M  V30 7 N -0.698566 0.725278 0.12701 0
M  V30 8 C -1.99368 0.343167 0.0315934 0
M  V30 9 N -3.07953 1.2369 0.202637 0
M  V30 10 C -2.79552 2.61129 0.516412 0
M  V30 11 C -2.28797 -0.972443 -0.244394 0
M  V30 12 N -3.62272 -1.38619 -0.340421 0
M  V30 13 C -1.29756 -1.92409 -0.4263 0
M  V30 14 N -1.62738 -3.27329 -0.689841 0
M  V30 15 N -0.0393237 -1.49493 -0.320155 0
M  V30 16 H 2.06862 2.43468 -1.32292 0
M  V30 17 H 3.50806 1.79765 -2.24148 0
M  V30 18 H 3.60004 2.08562 -0.412725 0
M  V30 19 H 1.90997 0.14203 -2.06273 0
M  V30 20 H 3.32068 -0.382838 -1.15479 0
M  V30 21 H 2.82937 1.19429 1.48007 0
M  V30 22 H 1.46735 0.147061 2.17248 0
M  V30 23 H 2.6767 -1.82422 0.943884 0
M  V30 24 H 3.15062 -1.32062 2.58416 0
M  V30 25 H 4.13123 -0.69693 1.13042 0
M  V30 26 H -4.06458 0.931524 0.108991 0
M  V30 27 H -1.75694 2.68495 0.871779 0
M  V30 28 H -3.51855 3.03782 1.2504 0
M  V30 29 H -2.83331 3.20093 -0.418029 0
M  V30 30 H -4.12672 -1.484 -1.24124 0
M  V30 31 H -4.14184 -1.60401 0.530699 0
M  V30 32 H -2.3311 -3.51688 -1.42494 0
M  V30 33 H -1.20417 -4.06925 -0.177966 0
M  V30 END ATOM
M  V30 BEGIN BOND
M  V30 1 1 1 2
M  V30 2 1 2 3
M  V30 3 1 3 4
M  V30 4 1 4 5
M  V30 5 1 3 6
M  V30 6 2 6 7
M  V30 7 1 7 8
M  V30 8 1 8 9
M  V30 9 1 9 10
M  V30 10 2 8 11
M  V30 11 1 11 12
M  V30 12 1 11 13
M  V30 13 1 13 14
M  V30 14 2 13 15
M  V30 15 1 15 6
M  V30 16 1 1 16
M  V30 17 1 1 17
M  V30 18 1 1 18
M  V30 19 1 2 19
M  V30 20 1 2 20
M  V30 21 1 4 21
M  V30 22 1 4 22
M  V30 23 1 5 23
M  V30 24 1 5 24
M  V30 25 1 5 25
M  V30 26 1 9 26
M  V30 27 1 10 27
M  V30 28 1 10 28
M  V30 29 1 10 29
M  V30 30 1 12 30
M  V30 31 1 12 31
M  V30 32 1 14 32
M  V30 33 1 14 33
M  V30 END BOND
M  V30 END CTAB
M  END
