
     RDKit          3D

  0  0  0  0  0  0  0  0  0  0999 V3000
M  V30 BEGIN CTAB
M  V30 COUNTS 21 22 0 0 0
M  V30 BEGIN ATOM
M  V30 1 N 4.40309 0.72692 0.310995 0
M  V30 2 C 3.08172 0.167288 0.26238 0
M  V30 3 N 2.76932 -1.13255 0.357831 0
M  V30 4 O 1.493 -1.28227 0.275076 0
M  V30 5 C 0.93917 -0.113853 0.126191 0
M  V30 6 N 1.91463 0.803045 0.115933 0
M  V30 7 C -0.510679 0.169579 -0.00935515 0
M  V30 8 C -0.95776 1.46587 -0.161879 0
M  V30 9 C -2.31797 1.69944 -0.286076 0
M  V30 10 C -3.23781 0.651867 -0.259644 0
M  V30 11 C -2.76094 -0.635623 -0.105676 0
M  V30 12 C -1.39872 -0.887136 0.0203171 0
M  V30 13 N -0.938701 -2.23402 0.17845 0
M  V30 14 F -3.59071 -1.70826 -0.0701408 0
M  V30 15 H 5.24039 0.191511 0.0116201 0
M  V30 16 H 4.57365 1.70712 0.6541 0
M  V30 17 H -0.235532 2.28394 -0.182227 0
M  V30 18 H -2.63005 2.72671 -0.403753 0
M  V30 19 H -4.29865 0.837931 -0.356865 0
M  V30 20 H -0.922427 -2.90374 -0.617129 0
M  V30 21 H -0.615021 -2.53376 1.12421 0
M  V30 END ATOM
M  V30 BEGIN BOND
M  V30 1 1 1 2
M  V30 2 2 2 3
M  V30 3 1 3 4
M  V30 4 1 4 5
M  V30 5 2 5 6
M  V30 6 1 5 7
M  V30 7 2 7 8
M  V30 8 1 8 9
M  V30 9 2 9 10
M  V30 10 1 10 11
M  V30 11 2 11 12
M  V30 12 1 12 13
M  V30 13 1 11 14
M  V30 14 1 6 2
M  V30 15 1 12 7
M  V30 16 1 1 15
M  V30 17 1 1 16
M  V30 18 1 8 17
M  V30 19 1 9 18
M  V30 20 1 10 19
M  V30 21 1 13 20
M  V30 22 1 13 21
M  V30 END BOND
M  V30 END CTAB
M  END
