
     RDKit          3D

  0  0  0  0  0  0  0  0  0  0999 V3000
M  V30 BEGIN CTAB
M  V30 COUNTS 35 35 0 0 0
M  V30 BEGIN ATOM
M  V30 1 C -2.06317 2.60058 2.05973 0
M  V30 2 C -2.25948 1.58053 0.973372 0
M  V30 3 O -1.06919 0.843698 0.878596 0
M  V30 4 C -1.16678 -0.136473 -0.132029 0
M  V30 5 C -0.156792 0.0421821 -1.2243 0
M  V30 6 C 1.24502 -0.0225765 -0.815158 0
M  V30 7 C 1.88535 1.05501 -0.26494 0
M  V30 8 N 1.2704 2.34786 -0.0875012 0
M  V30 9 N 3.17779 0.890693 0.109301 0
M  V30 10 C 3.87132 -0.243886 -0.0198668 0
M  V30 11 N 5.22742 -0.373272 0.387953 0
M  V30 12 N 3.20644 -1.29932 -0.571828 0
M  V30 13 C 1.93121 -1.23247 -0.970781 0
M  V30 14 O 1.34927 -2.24093 -1.48077 0
M  V30 15 O -1.11471 -1.40643 0.432316 0
M  V30 16 C -2.2443 -2.15719 0.352409 0
M  V30 17 C -2.60835 -2.41692 -1.08827 0
M  V30 18 H -1.01416 2.62111 2.42822 0
M  V30 19 H -2.69593 2.31225 2.92858 0
M  V30 20 H -2.38274 3.58875 1.64887 0
M  V30 21 H -3.13038 0.915532 1.16405 0
M  V30 22 H -2.41661 2.05958 -0.00336367 0
M  V30 23 H -2.17619 -0.00845891 -0.56329 0
M  V30 24 H -0.318587 -0.695471 -2.01499 0
M  V30 25 H -0.380475 1.03934 -1.69638 0
M  V30 26 H 0.892319 2.8032 -0.948449 0
M  V30 27 H 1.19743 2.81406 0.821886 0
M  V30 28 H 5.53057 -0.820537 1.27063 0
M  V30 29 H 5.9549 0.00736572 -0.243885 0
M  V30 30 H 3.7348 -2.19179 -0.6789 0
M  V30 31 H -3.13884 -1.6822 0.816525 0
M  V30 32 H -2.08271 -3.1506 0.852902 0
M  V30 33 H -3.25983 -3.33118 -1.18012 0
M  V30 34 H -1.68117 -2.58923 -1.65918 0
M  V30 35 H -3.11383 -1.5228 -1.48133 0
M  V30 END ATOM
M  V30 BEGIN BOND
M  V30 1 1 1 2
M  V30 2 1 2 3
M  V30 3 1 3 4
M  V30 4 1 4 5
M  V30 5 1 5 6
M  V30 6 2 6 7
M  V30 7 1 7 8
M  V30 8 1 7 9
M  V30 9 2 9 10
M  V30 10 1 10 11
M  V30 11 1 10 12
M  V30 12 1 12 13
M  V30 13 2 13 14
M  V30 14 1 4 15
M  V30 15 1 15 16
M  V30 16 1 16 17
M  V30 17 1 13 6
M  V30 18 1 1 18
M  V30 19 1 1 19
M  V30 20 1 1 20
M  V30 21 1 2 21
M  V30 22 1 2 22
M  V30 23 1 4 23
M  V30 24 1 5 24
M  V30 25 1 5 25
M  V30 26 1 8 26
M  V30 27 1 8 27
M  V30 28 1 11 28
M  V30 29 1 11 29
M  V30 30 1 12 30
M  V30 31 1 16 31
M  V30 32 1 16 32
M  V30 33 1 17 33
M  V30 34 1 17 34
M  V30 35 1 17 35
M  V30 END BOND
M  V30 END CTAB
M  END
