
     RDKit          3D

  0  0  0  0  0  0  0  0  0  0999 V3000
M  V30 BEGIN CTAB
M  V30 COUNTS 43 46 0 0 0
M  V30 BEGIN ATOM
M  V30 1 N -8.17364 -1.33083 -0.989524 0
M  V30 2 C -7.79377 -0.206443 -0.174628 0
M  V30 3 N -8.74616 0.47748 0.316466 0
M  V30 4 C -6.41779 0.132334 0.0757572 0
M  V30 5 C -5.39408 -0.644415 -0.482096 0
M  V30 6 C -4.0716 -0.323227 -0.244666 0
M  V30 7 C -3.76639 0.763575 0.542589 0
M  V30 8 N -2.42447 0.827808 0.594245 0
M  V30 9 C -1.83987 -0.150889 -0.111368 0
M  V30 10 C -0.38861 -0.387209 -0.276689 0
M  V30 11 C 0.489378 0.406684 0.300834 0
M  V30 12 C 1.94567 0.182683 0.144449 0
M  V30 13 C 2.95644 0.931584 0.689923 0
M  V30 14 C 4.14254 0.366472 0.28581 0
M  V30 15 C 3.77605 -0.706783 -0.491749 0
M  V30 16 O 2.47713 -0.775249 -0.546259 0
M  V30 17 C 4.78239 -1.47132 -1.04077 0
M  V30 18 C 6.09888 -1.17559 -0.821852 0
M  V30 19 C 6.4777 -0.0926581 -0.0372509 0
M  V30 20 C 5.47001 0.675843 0.514638 0
M  V30 21 C 7.88009 0.212644 0.188894 0
M  V30 22 N 8.86677 -0.625448 -0.413491 0
M  V30 23 N 8.294 1.18359 0.892675 0
M  V30 24 C -2.86523 -0.893435 -0.652416 0
M  V30 25 C -4.77089 1.55943 1.11433 0
M  V30 26 C -6.08451 1.20436 0.852433 0
M  V30 27 H -7.91412 -1.35012 -1.99814 0
M  V30 28 H -8.70577 -2.14814 -0.624707 0
M  V30 29 H -8.72163 1.30508 0.915279 0
M  V30 30 H -5.65529 -1.48056 -1.08789 0
M  V30 31 H -1.89542 1.57022 1.13327 0
M  V30 32 H -0.0289254 -1.21091 -0.871011 0
M  V30 33 H 0.168364 1.23286 0.897079 0
M  V30 34 H 2.80588 1.80485 1.32087 0
M  V30 35 H 4.52107 -2.32802 -1.66131 0
M  V30 36 H 6.8973 -1.76979 -1.24849 0
M  V30 37 H 5.68394 1.5459 1.14466 0
M  V30 38 H 8.73223 -1.66462 -0.280764 0
M  V30 39 H 9.67397 -0.263221 -0.952246 0
M  V30 40 H 7.63329 1.824 1.35331 0
M  V30 41 H -2.78956 -1.76534 -1.28277 0
M  V30 42 H -4.48203 2.39009 1.71626 0
M  V30 43 H -6.84331 1.82212 1.29632 0
M  V30 END ATOM
M  V30 BEGIN BOND
M  V30 1 1 1 2
M  V30 2 2 2 3 CFG=2
M  V30 3 1 2 4
M  V30 4 2 4 5
M  V30 5 1 5 6
M  V30 6 2 6 7
M  V30 7 1 7 8
M  V30 8 1 8 9
M  V30 9 1 9 10
M  V30 10 2 10 11
M  V30 11 1 11 12
M  V30 12 2 12 13
M  V30 13 1 13 14
M  V30 14 2 14 15
M  V30 15 1 15 16
M  V30 16 1 15 17
M  V30 17 2 17 18
M  V30 18 1 18 19
M  V30 19 2 19 20
M  V30 20 1 19 21
M  V30 21 1 21 22
M  V30 22 2 21 23 CFG=2
M  V30 23 2 9 24
M  V30 24 1 7 25
M  V30 25 2 25 26
M  V30 26 1 26 4
M  V30 27 1 24 6
M  V30 28 1 16 12
M  V30 29 1 20 14
M  V30 30 1 1 27
M  V30 31 1 1 28
M  V30 32 1 3 29
M  V30 33 1 5 30
M  V30 34 1 8 31
M  V30 35 1 10 32
M  V30 36 1 11 33
M  V30 37 1 13 34
M  V30 38 1 17 35
M  V30 39 1 18 36
M  V30 40 1 20 37
M  V30 41 1 22 38
M  V30 42 1 22 39
M  V30 43 1 23 40
M  V30 44 1 24 41
M  V30 45 1 25 42
M  V30 46 1 26 43
M  V30 END BOND
M  V30 END CTAB
M  END
