
     RDKit          3D

  0  0  0  0  0  0  0  0  0  0999 V3000
M  V30 BEGIN CTAB
M  V30 COUNTS 28 28 0 0 0
M  V30 BEGIN ATOM
M  V30 1 N 3.88904 -0.0261195 0.351241 0
M  V30 2 C 2.56804 0.378693 -0.129572 0
M  V30 3 C 1.50078 -0.551707 0.378803 0
M  V30 4 C 0.172131 -0.148137 -0.130142 0
M  V30 5 C -0.190409 1.23401 0.328167 0
M  V30 6 C -1.4043 1.70127 -0.457309 0
M  V30 7 C -2.55187 0.776783 -0.18847 0
M  V30 8 C -2.18705 -0.675284 -0.410537 0
M  V30 9 C -0.943457 -1.06207 0.355515 0
M  V30 10 N -0.656712 -2.44812 0.0982664 0
M  V30 11 H 4.24792 0.633947 1.07451 0
M  V30 12 H 4.5379 -0.0138477 -0.466139 0
M  V30 13 H 2.44282 1.43099 0.17003 0
M  V30 14 H 2.51882 0.360496 -1.24306 0
M  V30 15 H 1.53056 -0.459841 1.5071 0
M  V30 16 H 1.75273 -1.59934 0.0984364 0
M  V30 17 H 0.222741 -0.171349 -1.24263 0
M  V30 18 H 0.603368 1.96608 0.335811 0
M  V30 19 H -0.552685 1.10056 1.39383 0
M  V30 20 H -1.68553 2.69895 -0.0230912 0
M  V30 21 H -1.14428 1.77947 -1.52894 0
M  V30 22 H -3.38629 1.00275 -0.890662 0
M  V30 23 H -2.86579 0.905101 0.856725 0
M  V30 24 H -3.03421 -1.27962 -0.0154737 0
M  V30 25 H -2.08918 -0.925777 -1.48283 0
M  V30 26 H -1.11098 -0.886331 1.41639 0
M  V30 27 H -1.3311 -3.01084 0.669665 0
M  V30 28 H -0.85299 -2.71072 -0.903384 0
M  V30 END ATOM
M  V30 BEGIN BOND
M  V30 1 1 1 2
M  V30 2 1 2 3
M  V30 3 1 3 4
M  V30 4 1 4 5
M  V30 5 1 5 6
M  V30 6 1 6 7
M  V30 7 1 7 8
M  V30 8 1 8 9
M  V30 9 1 9 10
M  V30 10 1 9 4
M  V30 11 1 1 11
M  V30 12 1 1 12
M  V30 13 1 2 13
M  V30 14 1 2 14
M  V30 15 1 3 15
M  V30 16 1 3 16
M  V30 17 1 4 17
M  V30 18 1 5 18
M  V30 19 1 5 19
M  V30 20 1 6 20
M  V30 21 1 6 21
M  V30 22 1 7 22
M  V30 23 1 7 23
M  V30 24 1 8 24
M  V30 25 1 8 25
M  V30 26 1 9 26
M  V30 27 1 10 27
M  V30 28 1 10 28
M  V30 END BOND
M  V30 END CTAB
M  END
