
     RDKit          3D

  0  0  0  0  0  0  0  0  0  0999 V3000
M  V30 BEGIN CTAB
M  V30 COUNTS 20 20 0 0 0
M  V30 BEGIN ATOM
M  V30 1 N 3.85877 -1.60782 -0.429313 0
M  V30 2 C 2.80946 -1.12829 -0.32161 0
M  V30 3 C 1.50377 -0.539446 -0.168904 0
M  V30 4 C 0.343406 -1.29052 -0.22667 0
M  V30 5 C -0.906685 -0.72905 -0.0808381 0
M  V30 6 C -1.02558 0.646871 0.133791 0
M  V30 7 C 0.155194 1.38284 0.188274 0
M  V30 8 C 1.40532 0.820853 0.0423645 0
M  V30 9 N 2.60329 1.59209 0.10138 0
M  V30 10 N -2.29391 1.23901 0.285158 0
M  V30 11 C -2.12297 -1.58053 -0.151112 0
M  V30 12 F -1.74757 -2.88599 -0.367478 0
M  V30 13 F -2.70128 -1.54334 1.11579 0
M  V30 14 F -3.00044 -1.11775 -1.10792 0
M  V30 15 H 0.446418 -2.36265 -0.394417 0
M  V30 16 H 0.0848082 2.46054 0.355293 0
M  V30 17 H 3.0689 2.00524 -0.719954 0
M  V30 18 H 3.02209 1.73547 1.06189 0
M  V30 19 H -2.65656 1.86557 -0.440946 0
M  V30 20 H -2.84644 1.03691 1.12522 0
M  V30 END ATOM
M  V30 BEGIN BOND
M  V30 1 3 1 2
M  V30 2 1 2 3
M  V30 3 2 3 4
M  V30 4 1 4 5
M  V30 5 2 5 6
M  V30 6 1 6 7
M  V30 7 2 7 8
M  V30 8 1 8 9
M  V30 9 1 6 10
M  V30 10 1 5 11
M  V30 11 1 11 12
M  V30 12 1 11 13
M  V30 13 1 11 14
M  V30 14 1 8 3
M  V30 15 1 4 15
M  V30 16 1 7 16
M  V30 17 1 9 17
M  V30 18 1 9 18
M  V30 19 1 10 19
M  V30 20 1 10 20
M  V30 END BOND
M  V30 END CTAB
M  END
