
     RDKit          3D

  0  0  0  0  0  0  0  0  0  0999 V3000
M  V30 BEGIN CTAB
M  V30 COUNTS 27 28 0 0 0
M  V30 BEGIN ATOM
M  V30 1 N 6.02544 -0.545137 0.413329 0
M  V30 2 C 4.60966 -0.303224 0.36581 0
M  V30 3 N 3.68487 -0.996392 -0.271162 0
M  V30 4 C 2.44616 -0.431444 -0.0612607 0
M  V30 5 N 1.24895 -0.945586 -0.613143 0
M  V30 6 C -0.0385327 -0.432784 -0.447885 0
M  V30 7 C -1.0941 -1.10757 -1.09379 0
M  V30 8 C -2.39732 -0.693974 -1.0017 0
M  V30 9 C -2.7213 0.414642 -0.261149 0
M  V30 10 C -1.72845 1.09171 0.376611 0
M  V30 11 C -0.414153 0.667019 0.278331 0
M  V30 12 S -4.40734 0.924694 -0.159866 0
M  V30 13 N -5.21487 0.196041 1.15575 0
M  V30 14 O -4.37164 2.42881 0.0180574 0
M  V30 15 O -5.14183 0.627769 -1.41904 0
M  V30 16 N 2.69756 0.616331 0.723618 0
M  V30 17 N 3.97409 0.703181 0.983573 0
M  V30 18 H 6.64976 0.258263 0.228488 0
M  V30 19 H 6.41274 -1.48251 0.623331 0
M  V30 20 H 1.36608 -1.82317 -1.21976 0
M  V30 21 H -0.908223 -1.9912 -1.69532 0
M  V30 22 H -3.18932 -1.22756 -1.50581 0
M  V30 23 H -1.94048 1.95811 0.961783 0
M  V30 24 H 0.36202 1.22216 0.795406 0
M  V30 25 H -4.65561 0.0852204 2.00555 0
M  V30 26 H -5.72759 -0.651718 0.84417 0
M  V30 27 H 4.47344 1.43831 1.58437 0
M  V30 END ATOM
M  V30 BEGIN BOND
M  V30 1 1 1 2
M  V30 2 2 2 3
M  V30 3 1 3 4
M  V30 4 1 4 5
M  V30 5 1 5 6
M  V30 6 2 6 7
M  V30 7 1 7 8
M  V30 8 2 8 9
M  V30 9 1 9 10
M  V30 10 2 10 11
M  V30 11 1 9 12
M  V30 12 1 12 13
M  V30 13 2 12 14
M  V30 14 2 12 15
M  V30 15 2 4 16
M  V30 16 1 16 17
M  V30 17 1 17 2
M  V30 18 1 11 6
M  V30 19 1 1 18
M  V30 20 1 1 19
M  V30 21 1 5 20
M  V30 22 1 7 21
M  V30 23 1 8 22
M  V30 24 1 10 23
M  V30 25 1 11 24
M  V30 26 1 13 25
M  V30 27 1 13 26
M  V30 28 1 17 27
M  V30 END BOND
M  V30 END CTAB
M  END
