
     RDKit          3D

  0  0  0  0  0  0  0  0  0  0999 V3000
M  V30 BEGIN CTAB
M  V30 COUNTS 22 23 0 0 0
M  V30 BEGIN ATOM
M  V30 1 N -4.30087 0.185125 0.0261382 0
M  V30 2 N -3.00709 0.625123 0.0220785 0
M  V30 3 C -1.92902 -0.286595 -0.00338364 0
M  V30 4 O -2.15942 -1.52088 -0.0226237 0
M  V30 5 C -0.544878 0.161285 -0.00812721 0
M  V30 6 C -0.170838 1.48319 0.0112955 0
M  V30 7 N 1.14638 1.84047 0.00555958 0
M  V30 8 C 2.1314 0.934872 -0.0189634 0
M  V30 9 N 1.79995 -0.369323 -0.0384662 0
M  V30 10 C 0.511165 -0.758111 -0.0335272 0
M  V30 11 N 0.139838 -2.13598 -0.0539281 0
M  V30 12 N 2.93999 -1.04806 -0.0605013 0
M  V30 13 C 3.9854 -0.223479 -0.0557368 0
M  V30 14 C 3.51122 1.06285 -0.0292452 0
M  V30 15 H -4.97518 0.708202 0.575336 0
M  V30 16 H -4.45957 -0.811412 -0.110433 0
M  V30 17 H -2.85272 1.65674 0.0385029 0
M  V30 18 H -0.933072 2.24847 0.0313804 0
M  V30 19 H -0.0998007 -2.66282 0.811238 0
M  V30 20 H 0.119645 -2.60003 -0.998232 0
M  V30 21 H 5.04796 -0.469635 -0.0696088 0
M  V30 22 H 4.09951 1.98 -0.018753 0
M  V30 END ATOM
M  V30 BEGIN BOND
M  V30 1 1 1 2
M  V30 2 1 2 3
M  V30 3 2 3 4
M  V30 4 1 3 5
M  V30 5 1 5 6
M  V30 6 2 6 7
M  V30 7 1 7 8
M  V30 8 1 8 9
M  V30 9 1 9 10
M  V30 10 1 10 11
M  V30 11 1 9 12
M  V30 12 2 12 13
M  V30 13 1 13 14
M  V30 14 2 10 5
M  V30 15 2 14 8
M  V30 16 1 1 15
M  V30 17 1 1 16
M  V30 18 1 2 17
M  V30 19 1 6 18
M  V30 20 1 11 19
M  V30 21 1 11 20
M  V30 22 1 13 21
M  V30 23 1 14 22
M  V30 END BOND
M  V30 END CTAB
M  END
