
     RDKit          3D

  0  0  0  0  0  0  0  0  0  0999 V3000
M  V30 BEGIN CTAB
M  V30 COUNTS 25 25 0 0 0
M  V30 BEGIN ATOM
M  V30 1 N -1.02548 2.41107 -0.0303633 0
M  V30 2 C -1.74718 1.21058 0.320444 0
M  V30 3 C -1.04029 0.0577225 -0.401605 0
M  V30 4 C -1.78684 -1.19633 -0.0406411 0
M  V30 5 N -1.26189 -2.38231 -0.630468 0
M  V30 6 C 0.385804 0.0191151 -0.11893 0
M  V30 7 C 0.927578 -0.195089 1.14472 0
M  V30 8 C 2.2916 -0.221286 1.35278 0
M  V30 9 C 3.17313 -0.0320467 0.292496 0
M  V30 10 F 4.51362 -0.0624113 0.52376 0
M  V30 11 C 2.6599 0.17868 -0.949829 0
M  V30 12 C 1.29926 0.201352 -1.13732 0
M  V30 13 H -1.2361 3.21917 0.568417 0
M  V30 14 H -1.20902 2.61579 -1.05163 0
M  V30 15 H -1.75592 1.06367 1.40434 0
M  V30 16 H -2.77681 1.30363 -0.0345031 0
M  V30 17 H -1.20407 0.242702 -1.48119 0
M  V30 18 H -1.7261 -1.30884 1.06666 0
M  V30 19 H -2.86492 -1.08271 -0.275093 0
M  V30 20 H -0.745444 -2.99604 0.0688571 0
M  V30 21 H -2.04523 -3.01434 -0.976555 0
M  V30 22 H 0.248679 -0.342914 1.97333 0
M  V30 23 H 2.71438 -0.387469 2.3333 0
M  V30 24 H 3.29538 0.327747 -1.78739 0
M  V30 25 H 0.915948 0.37055 -2.13358 0
M  V30 END ATOM
M  V30 BEGIN BOND
M  V30 1 1 1 2
M  V30 2 1 2 3
M  V30 3 1 3 4
M  V30 4 1 4 5
M  V30 5 1 3 6
M  V30 6 2 6 7
M  V30 7 1 7 8
M  V30 8 2 8 9
M  V30 9 1 9 10
M  V30 10 1 9 11
M  V30 11 2 11 12
M  V30 12 1 12 6
M  V30 13 1 1 13
M  V30 14 1 1 14
M  V30 15 1 2 15
M  V30 16 1 2 16
M  V30 17 1 3 17
M  V30 18 1 4 18
M  V30 19 1 4 19
M  V30 20 1 5 20
M  V30 21 1 5 21
M  V30 22 1 7 22
M  V30 23 1 8 23
M  V30 24 1 11 24
M  V30 25 1 12 25
M  V30 END BOND
M  V30 END CTAB
M  END
