
     RDKit          3D

  0  0  0  0  0  0  0  0  0  0999 V3000
M  V30 BEGIN CTAB
M  V30 COUNTS 60 62 0 0 0
M  V30 BEGIN ATOM
M  V30 1 C -4.60559 0.212869 -4.17199 0
M  V30 2 C -3.43128 -0.511017 -3.5493 0
M  V30 3 C -2.96212 0.280409 -2.33385 0
M  V30 4 N -1.84841 -0.341189 -1.6858 0
M  V30 5 C -0.52948 -0.115363 -1.96066 0
M  V30 6 C -0.033759 0.784039 -2.98329 0
M  V30 7 C 0.188152 2.18978 -2.65293 0
M  V30 8 C 1.19832 2.51762 -1.61648 0
M  V30 9 O 1.8476 1.54853 -1.17232 0
M  V30 10 N 1.41981 3.8113 -1.16223 0
M  V30 11 C 2.29894 4.32606 -0.207022 0
M  V30 12 C 2.23011 4.0341 1.22151 0
M  V30 13 C 2.37148 2.6857 1.7513 0
M  V30 14 C 3.65986 2.16721 1.91799 0
M  V30 15 C 3.87849 0.93991 2.47994 0
M  V30 16 C 2.83909 0.144643 2.91378 0
M  V30 17 C 1.56574 0.641704 2.75532 0
M  V30 18 C 1.32108 1.87479 2.19224 0
M  V30 19 S 3.10646 -1.41859 3.64822 0
M  V30 20 O 4.44776 -1.3686 4.32543 0
M  V30 21 O 2.00128 -1.63014 4.64141 0
M  V30 22 N 3.16961 -2.62599 2.44175 0
M  V30 23 N 0.158088 -0.898759 -1.12809 0
M  V30 24 C -0.656649 -1.59616 -0.355196 0
M  V30 25 C -1.94629 -1.25347 -0.696396 0
M  V30 26 C -3.04168 -1.82757 -0.0564353 0
M  V30 27 C -2.82286 -2.75705 0.93706 0
M  V30 28 C -1.53434 -3.10793 1.28629 0
M  V30 29 C -0.443198 -2.52031 0.632498 0
M  V30 30 S -1.22217 -4.2904 2.53989 0
M  V30 31 O -2.36471 -4.32689 3.54033 0
M  V30 32 O 0.026734 -4.03491 3.29073 0
M  V30 33 N -1.14889 -5.86723 1.80829 0
M  V30 34 H -5.49171 0.055893 -3.5238 0
M  V30 35 H -4.43085 1.31317 -4.22277 0
M  V30 36 H -4.80457 -0.154423 -5.20424 0
M  V30 37 H -3.77749 -1.48841 -3.15774 0
M  V30 38 H -2.6253 -0.623685 -4.2685 0
M  V30 39 H -3.85248 0.38572 -1.67588 0
M  V30 40 H -2.72813 1.32 -2.68246 0
M  V30 41 H -0.71252 0.77441 -3.90123 0
M  V30 42 H 0.941862 0.404363 -3.44509 0
M  V30 43 H 0.476812 2.7383 -3.58682 0
M  V30 44 H -0.764881 2.65446 -2.32931 0
M  V30 45 H 0.783987 4.55228 -1.64653 0
M  V30 46 H 2.4585 5.45488 -0.341255 0
M  V30 47 H 3.3602 3.9584 -0.536935 0
M  V30 48 H 3.00877 4.70381 1.73597 0
M  V30 49 H 1.26734 4.48475 1.6431 0
M  V30 50 H 4.52912 2.74513 1.59576 0
M  V30 51 H 4.88114 0.524571 2.61537 0
M  V30 52 H 0.732917 0.018917 3.09547 0
M  V30 53 H 0.323052 2.27073 2.06492 0
M  V30 54 H 3.51965 -3.50468 2.86667 0
M  V30 55 H 3.85471 -2.31689 1.7206 0
M  V30 56 H -4.04898 -1.5507 -0.332003 0
M  V30 57 H -3.65367 -3.23471 1.46776 0
M  V30 58 H 0.541944 -2.83236 0.944742 0
M  V30 59 H -2.15655 -6.18021 1.68237 0
M  V30 60 H -0.770036 -5.81088 0.829843 0
M  V30 END ATOM
M  V30 BEGIN BOND
M  V30 1 1 1 2
M  V30 2 1 2 3
M  V30 3 1 3 4
M  V30 4 1 4 5
M  V30 5 1 5 6
M  V30 6 1 6 7
M  V30 7 1 7 8
M  V30 8 2 8 9
M  V30 9 1 8 10
M  V30 10 1 10 11
M  V30 11 1 11 12
M  V30 12 1 12 13
M  V30 13 2 13 14
M  V30 14 1 14 15
M  V30 15 2 15 16
M  V30 16 1 16 17
M  V30 17 2 17 18
M  V30 18 1 16 19
M  V30 19 2 19 20
M  V30 20 2 19 21
M  V30 21 1 19 22
M  V30 22 2 5 23
M  V30 23 1 23 24
M  V30 24 2 24 25
M  V30 25 1 25 26
M  V30 26 2 26 27
M  V30 27 1 27 28
M  V30 28 2 28 29
M  V30 29 1 28 30
M  V30 30 2 30 31
M  V30 31 2 30 32
M  V30 32 1 30 33
M  V30 33 1 25 4
M  V30 34 1 18 13
M  V30 35 1 29 24
M  V30 36 1 1 34
M  V30 37 1 1 35
M  V30 38 1 1 36
M  V30 39 1 2 37
M  V30 40 1 2 38
M  V30 41 1 3 39
M  V30 42 1 3 40
M  V30 43 1 6 41
M  V30 44 1 6 42
M  V30 45 1 7 43
M  V30 46 1 7 44
M  V30 47 1 10 45
M  V30 48 1 11 46
M  V30 49 1 11 47
M  V30 50 1 12 48
M  V30 51 1 12 49
M  V30 52 1 14 50
M  V30 53 1 15 51
M  V30 54 1 17 52
M  V30 55 1 18 53
M  V30 56 1 22 54
M  V30 57 1 22 55
M  V30 58 1 26 56
M  V30 59 1 27 57
M  V30 60 1 29 58
M  V30 61 1 33 59
M  V30 62 1 33 60
M  V30 END BOND
M  V30 END CTAB
M  END
