
     RDKit          3D

  0  0  0  0  0  0  0  0  0  0999 V3000
M  V30 BEGIN CTAB
M  V30 COUNTS 27 27 0 0 0
M  V30 BEGIN ATOM
M  V30 1 C -2.86457 2.8193 -0.254251 0
M  V30 2 S -1.12214 2.71884 0.0968738 0
M  V30 3 C -0.442873 1.08994 0.0365708 0
M  V30 4 C 0.912946 0.94025 0.30177 0
M  V30 5 C 1.55244 -0.258632 0.286447 0
M  V30 6 S 3.29256 -0.46152 0.625471 0
M  V30 7 C 4.10905 1.09035 0.989549 0
M  V30 8 C 0.830436 -1.40116 -0.00687895 0
M  V30 9 N 1.45297 -2.67313 -0.0348601 0
M  V30 10 C -0.531403 -1.30181 -0.279601 0
M  V30 11 C -1.2649 -2.54157 -0.587421 0
M  V30 12 C -1.13899 -0.0507602 -0.25111 0
M  V30 13 N -2.5198 0.0260835 -0.530695 0
M  V30 14 H -3.45646 2.22244 0.471341 0
M  V30 15 H -3.19432 3.88285 -0.0488908 0
M  V30 16 H -3.1382 2.61134 -1.31368 0
M  V30 17 H 1.51983 1.8222 0.538549 0
M  V30 18 H 3.44429 1.80201 1.5568 0
M  V30 19 H 5.00154 0.940541 1.64152 0
M  V30 20 H 4.47741 1.6118 0.0821121 0
M  V30 21 H 1.03468 -3.51186 0.412867 0
M  V30 22 H 2.3623 -2.77962 -0.51934 0
M  V30 23 H -1.03914 -3.32229 0.19733 0
M  V30 24 H -2.34443 -2.41356 -0.649823 0
M  V30 25 H -0.833325 -2.95989 -1.5351 0
M  V30 26 H -2.90913 0.238998 -1.47034 0
M  V30 27 H -3.19076 -0.141159 0.244794 0
M  V30 END ATOM
M  V30 BEGIN BOND
M  V30 1 1 1 2
M  V30 2 1 2 3
M  V30 3 2 3 4
M  V30 4 1 4 5
M  V30 5 1 5 6
M  V30 6 1 6 7
M  V30 7 2 5 8
M  V30 8 1 8 9
M  V30 9 1 8 10
M  V30 10 1 10 11
M  V30 11 2 10 12
M  V30 12 1 12 13
M  V30 13 1 12 3
M  V30 14 1 1 14
M  V30 15 1 1 15
M  V30 16 1 1 16
M  V30 17 1 4 17
M  V30 18 1 7 18
M  V30 19 1 7 19
M  V30 20 1 7 20
M  V30 21 1 9 21
M  V30 22 1 9 22
M  V30 23 1 11 23
M  V30 24 1 11 24
M  V30 25 1 11 25
M  V30 26 1 13 26
M  V30 27 1 13 27
M  V30 END BOND
M  V30 END CTAB
M  END
