
     RDKit          3D

  0  0  0  0  0  0  0  0  0  0999 V3000
M  V30 BEGIN CTAB
M  V30 COUNTS 23 23 0 0 0
M  V30 BEGIN ATOM
M  V30 1 N 2.9923 -0.91972 -0.407813 0
M  V30 2 C 1.56505 -0.969169 -0.682316 0
M  V30 3 C 0.820007 -0.240793 0.372764 0
M  V30 4 O 1.2577 1.08923 0.377203 0
M  V30 5 C 0.265256 1.8292 1.01297 0
M  V30 6 C -0.987305 1.25521 0.367288 0
M  V30 7 C -0.632143 -0.237391 0.334887 0
M  V30 8 C -1.32549 -0.811977 -0.843263 0
M  V30 9 N -2.76211 -0.691124 -0.64422 0
M  V30 10 H 3.43491 -0.0599032 -0.777745 0
M  V30 11 H 3.11656 -0.888655 0.642354 0
M  V30 12 H 1.43133 -0.453429 -1.6784 0
M  V30 13 H 1.30836 -2.00853 -0.83459 0
M  V30 14 H 1.16491 -0.64744 1.37096 0
M  V30 15 H 0.396029 2.88929 0.715742 0
M  V30 16 H 0.296971 1.66046 2.09285 0
M  V30 17 H -1.88097 1.44442 0.988367 0
M  V30 18 H -1.07601 1.67283 -0.63796 0
M  V30 19 H -1.09715 -0.658866 1.25975 0
M  V30 20 H -1.09356 -0.239737 -1.76639 0
M  V30 21 H -1.14958 -1.88727 -1.01724 0
M  V30 22 H -2.94435 0.262134 -0.289457 0
M  V30 23 H -3.1007 -1.38877 0.0442665 0
M  V30 END ATOM
M  V30 BEGIN BOND
M  V30 1 1 1 2
M  V30 2 1 2 3
M  V30 3 1 3 4
M  V30 4 1 4 5
M  V30 5 1 5 6
M  V30 6 1 6 7
M  V30 7 1 7 8
M  V30 8 1 8 9
M  V30 9 1 7 3
M  V30 10 1 1 10
M  V30 11 1 1 11
M  V30 12 1 2 12
M  V30 13 1 2 13
M  V30 14 1 3 14
M  V30 15 1 5 15
M  V30 16 1 5 16
M  V30 17 1 6 17
M  V30 18 1 6 18
M  V30 19 1 7 19
M  V30 20 1 8 20
M  V30 21 1 8 21
M  V30 22 1 9 22
M  V30 23 1 9 23
M  V30 END BOND
M  V30 END CTAB
M  END
