
     RDKit          3D

  0  0  0  0  0  0  0  0  0  0999 V3000
M  V30 BEGIN CTAB
M  V30 COUNTS 41 42 0 0 0
M  V30 BEGIN ATOM
M  V30 1 C -5.06114 2.33476 0.049148 0
M  V30 2 C -4.47776 1.18599 0.81647 0
M  V30 3 N -3.73674 0.268564 -0.0170921 0
M  V30 4 C -2.33796 0.176514 0.130568 0
M  V30 5 C -1.81631 -0.457714 1.22767 0
M  V30 6 C -0.45933 -0.58106 1.42345 0
M  V30 7 C 0.404487 -0.0507358 0.489341 0
M  V30 8 C -0.0889281 0.582325 -0.606032 0
M  V30 9 C -1.44591 0.696672 -0.786188 0
M  V30 10 C 1.82329 -0.165286 0.712211 0
M  V30 11 N 2.63701 0.301919 -0.184414 0
M  V30 12 N 4.01295 0.232278 -0.0477287 0
M  V30 13 C 4.71418 -0.834227 -0.112946 0
M  V30 14 C 6.15986 -0.769369 0.048687 0
M  V30 15 N 7.06843 -1.75319 0.0190134 0
M  V30 16 O 8.26045 -1.23992 0.208037 0
M  V30 17 N 8.17514 0.036976 0.360713 0
M  V30 18 C 6.90489 0.40068 0.275554 0
M  V30 19 N 6.29211 1.67263 0.378116 0
M  V30 20 N 4.08827 -2.08401 -0.339827 0
M  V30 21 C -4.40724 -0.552979 -0.993144 0
M  V30 22 C -5.26635 -1.59739 -0.309705 0
M  V30 23 H -5.53359 3.02431 0.790985 0
M  V30 24 H -4.2574 2.84768 -0.4897 0
M  V30 25 H -5.88683 1.99602 -0.618141 0
M  V30 26 H -3.79921 1.61986 1.59254 0
M  V30 27 H -5.24452 0.623809 1.41049 0
M  V30 28 H -2.47666 -0.893358 1.98811 0
M  V30 29 H -0.112334 -1.09515 2.31113 0
M  V30 30 H 0.582484 1.00073 -1.34034 0
M  V30 31 H -1.82274 1.2001 -1.65621 0
M  V30 32 H 2.26416 -0.61669 1.5874 0
M  V30 33 H 6.00614 2.00578 1.32137 0
M  V30 34 H 6.11151 2.2887 -0.436236 0
M  V30 35 H 3.8086 -2.75059 0.424043 0
M  V30 36 H 3.89443 -2.36099 -1.33331 0
M  V30 37 H -5.00635 0.0610309 -1.70691 0
M  V30 38 H -3.65493 -1.07799 -1.59341 0
M  V30 39 H -5.7675 -2.19786 -1.11917 0
M  V30 40 H -4.58415 -2.2915 0.188953 0
M  V30 41 H -5.96447 -1.18733 0.420724 0
M  V30 END ATOM
M  V30 BEGIN BOND
M  V30 1 1 1 2
M  V30 2 1 2 3
M  V30 3 1 3 4
M  V30 4 2 4 5
M  V30 5 1 5 6
M  V30 6 2 6 7
M  V30 7 1 7 8
M  V30 8 2 8 9
M  V30 9 1 7 10
M  V30 10 2 10 11
M  V30 11 1 11 12
M  V30 12 2 12 13
M  V30 13 1 13 14
M  V30 14 2 14 15
M  V30 15 1 15 16
M  V30 16 1 16 17
M  V30 17 2 17 18
M  V30 18 1 18 19
M  V30 19 1 13 20
M  V30 20 1 3 21
M  V30 21 1 21 22
M  V30 22 1 9 4
M  V30 23 1 18 14
M  V30 24 1 1 23
M  V30 25 1 1 24
M  V30 26 1 1 25
M  V30 27 1 2 26
M  V30 28 1 2 27
M  V30 29 1 5 28
M  V30 30 1 6 29
M  V30 31 1 8 30
M  V30 32 1 9 31
M  V30 33 1 10 32
M  V30 34 1 19 33
M  V30 35 1 19 34
M  V30 36 1 20 35
M  V30 37 1 20 36
M  V30 38 1 21 37
M  V30 39 1 21 38
M  V30 40 1 22 39
M  V30 41 1 22 40
M  V30 42 1 22 41
M  V30 END BOND
M  V30 END CTAB
M  END
