
     RDKit          3D

  0  0  0  0  0  0  0  0  0  0999 V3000
M  V30 BEGIN CTAB
M  V30 COUNTS 20 20 0 0 0
M  V30 BEGIN ATOM
M  V30 1 N 3.81374 0.45943 0.506817 0
M  V30 2 N 2.42189 0.516996 0.345178 0
M  V30 3 C 1.67606 -0.622856 0.0381213 0
M  V30 4 O 2.26636 -1.72588 -0.0982642 0
M  V30 5 C 0.235347 -0.560557 -0.12739 0
M  V30 6 C -0.443176 -1.65573 -0.671287 0
M  V30 7 C -1.80367 -1.54254 -0.798615 0
M  V30 8 C -2.47532 -0.401515 -0.408816 0
M  V30 9 C -1.81749 0.679681 0.126679 0
M  V30 10 N -2.53356 1.83462 0.516588 0
M  V30 11 C -0.432486 0.573889 0.260323 0
M  V30 12 H 4.31334 0.818047 -0.322708 0
M  V30 13 H 4.13233 -0.498338 0.77473 0
M  V30 14 H 1.98215 1.43999 0.461038 0
M  V30 15 H 0.148244 -2.51129 -0.952301 0
M  V30 16 H -2.3225 -2.4021 -1.22374 0
M  V30 17 H -3.55325 -0.368288 -0.533316 0
M  V30 18 H -3.04938 1.79799 1.44529 0
M  V30 19 H -2.59311 2.70944 -0.0318089 0
M  V30 20 H 0.0344728 1.45901 0.693484 0
M  V30 END ATOM
M  V30 BEGIN BOND
M  V30 1 1 1 2
M  V30 2 1 2 3
M  V30 3 2 3 4
M  V30 4 1 3 5
M  V30 5 2 5 6
M  V30 6 1 6 7
M  V30 7 2 7 8
M  V30 8 1 8 9
M  V30 9 1 9 10
M  V30 10 2 9 11
M  V30 11 1 11 5
M  V30 12 1 1 12
M  V30 13 1 1 13
M  V30 14 1 2 14
M  V30 15 1 6 15
M  V30 16 1 7 16
M  V30 17 1 8 17
M  V30 18 1 10 18
M  V30 19 1 10 19
M  V30 20 1 11 20
M  V30 END BOND
M  V30 END CTAB
M  END
