
     RDKit          3D

  0  0  0  0  0  0  0  0  0  0999 V3000
M  V30 BEGIN CTAB
M  V30 COUNTS 28 28 0 0 0
M  V30 BEGIN ATOM
M  V30 1 N -1.25005 -2.0241 1.24134 0
M  V30 2 N -0.941704 -1.90933 -0.0767259 0
M  V30 3 C -0.775603 -0.581569 -0.588925 0
M  V30 4 C 0.325938 0.102459 0.149872 0
M  V30 5 C 0.273926 0.799747 1.34205 0
M  V30 6 N 1.51132 1.23895 1.62206 0
M  V30 7 N 2.36699 0.879833 0.70083 0
M  V30 8 C 1.67583 0.180963 -0.218458 0
M  V30 9 N 2.18718 -0.408114 -1.39889 0
M  V30 10 C 3.79937 1.15831 0.638266 0
M  V30 11 C -2.00386 0.206283 -0.694614 0
M  V30 12 C -2.50004 0.545126 -1.89743 0
M  V30 13 C -2.80332 0.697014 0.464319 0
M  V30 14 H -1.63704 -2.97734 1.42119 0
M  V30 15 H -0.495906 -1.85278 1.91081 0
M  V30 16 H -1.48602 -2.5474 -0.658985 0
M  V30 17 H -0.373918 -0.72245 -1.63837 0
M  V30 18 H -0.595068 0.966107 1.94532 0
M  V30 19 H 2.10543 0.014947 -2.34784 0
M  V30 20 H 2.67627 -1.31995 -1.32269 0
M  V30 21 H 4.30649 0.17511 0.741991 0
M  V30 22 H 4.08406 1.65902 -0.299848 0
M  V30 23 H 4.08967 1.80459 1.48404 0
M  V30 24 H -1.96845 0.220698 -2.78527 0
M  V30 25 H -3.40114 1.12432 -2.04064 0
M  V30 26 H -2.74318 0.0834785 1.35877 0
M  V30 27 H -2.5282 1.73273 0.755056 0
M  V30 28 H -3.89894 0.753354 0.192786 0
M  V30 END ATOM
M  V30 BEGIN BOND
M  V30 1 1 1 2
M  V30 2 1 2 3
M  V30 3 1 3 4
M  V30 4 1 4 5
M  V30 5 2 5 6
M  V30 6 1 6 7
M  V30 7 1 7 8
M  V30 8 1 8 9
M  V30 9 1 7 10
M  V30 10 1 3 11
M  V30 11 2 11 12 CFG=2
M  V30 12 1 11 13
M  V30 13 2 8 4
M  V30 14 1 1 14
M  V30 15 1 1 15
M  V30 16 1 2 16
M  V30 17 1 3 17
M  V30 18 1 5 18
M  V30 19 1 9 19
M  V30 20 1 9 20
M  V30 21 1 10 21
M  V30 22 1 10 22
M  V30 23 1 10 23
M  V30 24 1 12 24
M  V30 25 1 12 25
M  V30 26 1 13 26
M  V30 27 1 13 27
M  V30 28 1 13 28
M  V30 END BOND
M  V30 END CTAB
M  END
