
     RDKit          3D

  0  0  0  0  0  0  0  0  0  0999 V3000
M  V30 BEGIN CTAB
M  V30 COUNTS 28 28 0 0 0
M  V30 BEGIN ATOM
M  V30 1 N -2.73454 -1.33407 -1.36632 0
M  V30 2 N -2.40283 -0.527408 -0.272631 0
M  V30 3 C -1.52739 -1.00835 0.719966 0
M  V30 4 C -0.163595 -0.449604 0.826494 0
M  V30 5 O 0.649279 -0.625161 -0.329144 0
M  V30 6 C 1.95466 -0.158006 -0.250509 0
M  V30 7 C 2.87366 -1.07721 0.26476 0
M  V30 8 Cl 2.36386 -2.68455 0.753109 0
M  V30 9 C 4.20216 -0.73833 0.397725 0
M  V30 10 C 4.62913 0.515805 0.020981 0
M  V30 11 C 3.72873 1.41725 -0.48496 0
M  V30 12 C 2.40479 1.06887 -0.614273 0
M  V30 13 Cl 1.24599 2.23046 -1.29131 0
M  V30 14 C -2.97143 0.762679 -0.199993 0
M  V30 15 N -4.30803 0.853249 0.294394 0
M  V30 16 N -2.39364 1.85105 -0.543846 0
M  V30 17 H -3.25406 -2.20976 -1.0605 0
M  V30 18 H -3.27931 -0.81088 -2.08717 0
M  V30 19 H -1.98979 -0.872109 1.75419 0
M  V30 20 H -1.40394 -2.13008 0.662428 0
M  V30 21 H 0.356425 -0.99981 1.65455 0
M  V30 22 H -0.130357 0.634466 1.06563 0
M  V30 23 H 4.9385 -1.4376 0.797865 0
M  V30 24 H 5.6989 0.785085 0.131158 0
M  V30 25 H 4.03828 2.42239 -0.795857 0
M  V30 26 H -5.10402 0.72073 -0.353841 0
M  V30 27 H -4.51237 1.04878 1.2864 0
M  V30 28 H -2.90908 2.75211 -0.446983 0
M  V30 END ATOM
M  V30 BEGIN BOND
M  V30 1 1 1 2
M  V30 2 1 2 3
M  V30 3 1 3 4
M  V30 4 1 4 5
M  V30 5 1 5 6
M  V30 6 2 6 7
M  V30 7 1 7 8
M  V30 8 1 7 9
M  V30 9 2 9 10
M  V30 10 1 10 11
M  V30 11 2 11 12
M  V30 12 1 12 13
M  V30 13 1 2 14
M  V30 14 1 14 15
M  V30 15 2 14 16 CFG=2
M  V30 16 1 12 6
M  V30 17 1 1 17
M  V30 18 1 1 18
M  V30 19 1 3 19
M  V30 20 1 3 20
M  V30 21 1 4 21
M  V30 22 1 4 22
M  V30 23 1 9 23
M  V30 24 1 10 24
M  V30 25 1 11 25
M  V30 26 1 15 26
M  V30 27 1 15 27
M  V30 28 1 16 28
M  V30 END BOND
M  V30 END CTAB
M  END
