
     RDKit          3D

  0  0  0  0  0  0  0  0  0  0999 V3000
M  V30 BEGIN CTAB
M  V30 COUNTS 30 32 0 0 0
M  V30 BEGIN ATOM
M  V30 1 N -2.17296 -3.11814 -0.521897 0
M  V30 2 C -2.23569 -1.67849 -0.449397 0
M  V30 3 N -1.12556 -0.958848 -0.204216 0
M  V30 4 C -1.20884 0.376621 -0.141525 0
M  V30 5 C -2.42847 1.01721 -0.32737 0
M  V30 6 N -2.18372 2.33496 -0.205681 0
M  V30 7 C -0.870204 2.47868 0.0431111 0
M  V30 8 N -0.261834 1.27837 0.0844195 0
M  V30 9 C 1.12137 1.08856 0.326525 0 CFG=1
M  V30 10 C 1.45449 0.124576 1.42777 0
M  V30 11 O 2.79412 -0.171672 1.13958 0
M  V30 12 C 3.04326 0.245304 -0.143219 0 CFG=1
M  V30 13 C 3.8739 -0.726751 -0.948913 0
M  V30 14 O 5.08796 -0.874574 -0.287627 0
M  V30 15 O 1.81031 0.508982 -0.750794 0
M  V30 16 C -3.56406 0.273948 -0.578584 0
M  V30 17 N -4.78322 0.953911 -0.762028 0
M  V30 18 N -3.41587 -1.05878 -0.629235 0
M  V30 19 H -1.73645 -3.69671 0.215329 0
M  V30 20 H -2.58672 -3.59095 -1.35504 0
M  V30 21 H -0.419776 3.46716 0.18324 0
M  V30 22 H 1.65112 2.03788 0.548788 0
M  V30 23 H 1.35165 0.664562 2.39153 0
M  V30 24 H 0.913085 -0.820178 1.39098 0
M  V30 25 H 3.6592 1.18899 -0.0711137 0
M  V30 26 H 3.3653 -1.70673 -1.06413 0
M  V30 27 H 4.07812 -0.239626 -1.93194 0
M  V30 28 H 5.33619 -1.82388 -0.153428 0
M  V30 29 H -5.20712 1.60286 -0.0676253 0
M  V30 30 H -5.3396 0.822764 -1.65709 0
M  V30 END ATOM
M  V30 BEGIN BOND
M  V30 1 1 1 2
M  V30 2 2 2 3
M  V30 3 1 3 4
M  V30 4 2 4 5
M  V30 5 1 5 6
M  V30 6 2 6 7
M  V30 7 1 7 8
M  V30 8 1 8 9
M  V30 9 1 9 10
M  V30 10 1 10 11
M  V30 11 1 11 12
M  V30 12 1 12 13
M  V30 13 1 13 14
M  V30 14 1 12 15
M  V30 15 1 5 16
M  V30 16 1 16 17
M  V30 17 2 16 18
M  V30 18 1 18 2
M  V30 19 1 8 4
M  V30 20 1 15 9
M  V30 21 1 1 19
M  V30 22 1 1 20
M  V30 23 1 7 21
M  V30 24 1 9 22 CFG=1
M  V30 25 1 10 23
M  V30 26 1 10 24
M  V30 27 1 12 25 CFG=1
M  V30 28 1 13 26
M  V30 29 1 13 27
M  V30 30 1 14 28
M  V30 31 1 17 29
M  V30 32 1 17 30
M  V30 END BOND
M  V30 END CTAB
M  END
