
     RDKit          3D

  0  0  0  0  0  0  0  0  0  0999 V3000
M  V30 BEGIN CTAB
M  V30 COUNTS 31 31 0 0 0
M  V30 BEGIN ATOM
M  V30 1 C 6.23007 0.102201 -0.997431 0
M  V30 2 C 4.84402 0.585166 -0.613163 0
M  V30 3 O 4.69379 1.81554 -0.420702 0
M  V30 4 N 3.79033 -0.305787 -0.48211 0
M  V30 5 C 2.45722 -3.34324e-05 -0.140569 0
M  V30 6 C 1.60747 -1.04353 0.290849 0
M  V30 7 C 0.299745 -0.813504 0.617072 0
M  V30 8 C -0.248093 0.442681 0.54039 0
M  V30 9 C 0.564472 1.46495 0.123009 0
M  V30 10 C 1.88712 1.23942 -0.208565 0
M  V30 11 S -1.91463 0.767929 0.950606 0
M  V30 12 O -2.02579 2.15967 1.49395 0
M  V30 13 O -2.33952 -0.175064 2.06292 0
M  V30 14 N -2.95436 0.607332 -0.419812 0
M  V30 15 N -3.55942 -0.594711 -0.754867 0
M  V30 16 C -4.75604 -0.888586 -0.38965 0
M  V30 17 N -5.36914 -2.10358 -0.727658 0
M  V30 18 N -5.47292 0.0617631 0.384842 0
M  V30 19 H 6.78868 0.90191 -1.51384 0
M  V30 20 H 6.17738 -0.827836 -1.5813 0
M  V30 21 H 6.75867 -0.120196 -0.0526529 0
M  V30 22 H 4.0289 -1.33999 -0.666721 0
M  V30 23 H 2.05124 -2.0466 0.35067 0
M  V30 24 H -0.325785 -1.64789 0.946838 0
M  V30 25 H 0.169988 2.49142 0.0453518 0
M  V30 26 H 2.46239 2.11561 -0.547358 0
M  V30 27 H -3.11417 1.46138 -0.997 0
M  V30 28 H -5.40295 -2.92138 -0.0509625 0
M  V30 29 H -5.81693 -2.23302 -1.67652 0
M  V30 30 H -6.45864 0.322945 0.109776 0
M  V30 31 H -5.0531 0.52179 1.23414 0
M  V30 END ATOM
M  V30 BEGIN BOND
M  V30 1 1 1 2
M  V30 2 2 2 3
M  V30 3 1 2 4
M  V30 4 1 4 5
M  V30 5 2 5 6
M  V30 6 1 6 7
M  V30 7 2 7 8
M  V30 8 1 8 9
M  V30 9 2 9 10
M  V30 10 1 8 11
M  V30 11 2 11 12
M  V30 12 2 11 13
M  V30 13 1 11 14
M  V30 14 1 14 15
M  V30 15 2 15 16
M  V30 16 1 16 17
M  V30 17 1 16 18
M  V30 18 1 10 5
M  V30 19 1 1 19
M  V30 20 1 1 20
M  V30 21 1 1 21
M  V30 22 1 4 22
M  V30 23 1 6 23
M  V30 24 1 7 24
M  V30 25 1 9 25
M  V30 26 1 10 26
M  V30 27 1 14 27
M  V30 28 1 17 28
M  V30 29 1 17 29
M  V30 30 1 18 30
M  V30 31 1 18 31
M  V30 END BOND
M  V30 END CTAB
M  END
