
     RDKit          3D

  0  0  0  0  0  0  0  0  0  0999 V3000
M  V30 BEGIN CTAB
M  V30 COUNTS 45 47 0 0 0
M  V30 BEGIN ATOM
M  V30 1 N -4.36632 -1.55092 0.904034 0
M  V30 2 C -3.64112 -1.78168 -0.335308 0
M  V30 3 C -2.17112 -1.55227 -0.184669 0
M  V30 4 N -1.83107 -0.138898 -0.172246 0
M  V30 5 C -0.436543 0.285712 0.0152721 0
M  V30 6 C 0.0294364 -0.0199285 1.40859 0
M  V30 7 O 1.29736 0.328328 1.74281 0
M  V30 8 C 2.53963 0.0283758 1.34874 0
M  V30 9 C 2.90779 -0.847547 0.363303 0
M  V30 10 C 4.24888 -1.07583 0.0406581 0
M  V30 11 C 5.25733 -0.43905 0.690204 0
M  V30 12 C 4.9147 0.450837 1.6904 0
M  V30 13 C 3.59802 0.675375 2.00728 0
M  V30 14 S 6.91126 -0.755972 0.248393 0
M  V30 15 O 6.96364 -2.17521 -0.292329 0
M  V30 16 O 7.81849 -0.739887 1.45871 0
M  V30 17 N 7.43045 0.373467 -0.95617 0
M  V30 18 C -2.88184 0.801589 -0.339958 0
M  V30 19 C -4.08665 0.492322 -0.93921 0
M  V30 20 C -4.25537 -0.906756 -1.41085 0
M  V30 21 C -5.11164 1.3981 -1.10831 0
M  V30 22 C -4.87874 2.68231 -0.635438 0
M  V30 23 C -3.68513 3.01349 -0.0345173 0
M  V30 24 C -2.66355 2.10115 0.131364 0
M  V30 25 H -4.24829 -2.34789 1.57573 0
M  V30 26 H -5.3808 -1.47053 0.695145 0
M  V30 27 H -3.82874 -2.83538 -0.626905 0
M  V30 28 H -1.84966 -2.05221 0.758657 0
M  V30 29 H -1.63397 -2.05417 -1.02696 0
M  V30 30 H -0.252371 1.32435 -0.242913 0
M  V30 31 H 0.136191 -0.32663 -0.710941 0
M  V30 32 H -0.119795 -1.12271 1.61842 0
M  V30 33 H -0.674402 0.482081 2.13825 0
M  V30 34 H 2.12202 -1.38551 -0.173863 0
M  V30 35 H 4.46257 -1.78854 -0.758285 0
M  V30 36 H 5.73682 0.947604 2.19647 0
M  V30 37 H 3.35021 1.38058 2.79782 0
M  V30 38 H 6.58327 0.658729 -1.49206 0
M  V30 39 H 7.79364 1.2131 -0.420756 0
M  V30 40 H -3.79193 -1.10311 -2.38458 0
M  V30 41 H -5.34145 -1.13795 -1.42531 0
M  V30 42 H -6.05668 1.16354 -1.57658 0
M  V30 43 H -5.67706 3.4165 -0.760149 0
M  V30 44 H -3.51017 4.02203 0.332694 0
M  V30 45 H -1.72728 2.36902 0.609146 0
M  V30 END ATOM
M  V30 BEGIN BOND
M  V30 1 1 1 2
M  V30 2 1 2 3
M  V30 3 1 3 4
M  V30 4 1 4 5
M  V30 5 1 5 6
M  V30 6 1 6 7
M  V30 7 1 7 8
M  V30 8 2 8 9
M  V30 9 1 9 10
M  V30 10 2 10 11
M  V30 11 1 11 12
M  V30 12 2 12 13
M  V30 13 1 11 14
M  V30 14 2 14 15
M  V30 15 2 14 16
M  V30 16 1 14 17
M  V30 17 1 4 18
M  V30 18 2 18 19
M  V30 19 1 19 20
M  V30 20 1 19 21
M  V30 21 2 21 22
M  V30 22 1 22 23
M  V30 23 2 23 24
M  V30 24 1 20 2
M  V30 25 1 13 8
M  V30 26 1 24 18
M  V30 27 1 1 25
M  V30 28 1 1 26
M  V30 29 1 2 27
M  V30 30 1 3 28
M  V30 31 1 3 29
M  V30 32 1 5 30
M  V30 33 1 5 31
M  V30 34 1 6 32
M  V30 35 1 6 33
M  V30 36 1 9 34
M  V30 37 1 10 35
M  V30 38 1 12 36
M  V30 39 1 13 37
M  V30 40 1 17 38
M  V30 41 1 17 39
M  V30 42 1 20 40
M  V30 43 1 20 41
M  V30 44 1 21 42
M  V30 45 1 22 43
M  V30 46 1 23 44
M  V30 47 1 24 45
M  V30 END BOND
M  V30 END CTAB
M  END
