
     RDKit          3D

  0  0  0  0  0  0  0  0  0  0999 V3000
M  V30 BEGIN CTAB
M  V30 COUNTS 31 30 0 0 0
M  V30 BEGIN ATOM
M  V30 1 C 3.20551 -1.27463 -0.471548 0
M  V30 2 C 1.81838 -0.777561 -0.923619 0
M  V30 3 C 1.34773 0.298968 -0.020538 0
M  V30 4 C 0.0393872 0.917189 -0.29272 0
M  V30 5 C -1.17438 0.0648772 -0.27995 0
M  V30 6 C -1.44291 -0.651598 1.02449 0
M  V30 7 N -2.68997 -1.4177 0.836504 0
M  V30 8 O -2.32997 0.893412 -0.449235 0
M  V30 9 C -1.28156 -0.938524 -1.39959 0
M  V30 10 C -0.147208 2.20714 0.468378 0
M  V30 11 N -0.0757588 2.07957 1.88056 0
M  V30 12 H 4.0013 -0.617609 -0.866779 0
M  V30 13 H 3.20847 -1.35643 0.634958 0
M  V30 14 H 3.3806 -2.2974 -0.8623 0
M  V30 15 H 1.2013 -1.71956 -0.816807 0
M  V30 16 H 1.92854 -0.48297 -1.97813 0
M  V30 17 H 2.10802 1.13612 -0.103085 0
M  V30 18 H 1.48809 -0.070425 1.01664 0
M  V30 19 H 0.11986 1.27898 -1.37694 0
M  V30 20 H -1.60037 -0.000146969 1.88191 0
M  V30 21 H -0.664885 -1.42774 1.17931 0
M  V30 22 H -3.50662 -0.907658 1.23872 0
M  V30 23 H -2.62073 -2.36881 1.22004 0
M  V30 24 H -2.40027 1.15601 -1.40324 0
M  V30 25 H -1.1391 -1.98951 -1.04304 0
M  V30 26 H -0.515312 -0.687839 -2.15944 0
M  V30 27 H -2.24754 -0.890278 -1.95149 0
M  V30 28 H -1.13391 2.65387 0.217828 0
M  V30 29 H 0.604694 2.97498 0.159354 0
M  V30 30 H 0.406612 1.25314 2.25085 0
M  V30 31 H 0.111994 2.96214 2.38892 0
M  V30 END ATOM
M  V30 BEGIN BOND
M  V30 1 1 1 2
M  V30 2 1 2 3
M  V30 3 1 3 4
M  V30 4 1 4 5
M  V30 5 1 5 6
M  V30 6 1 6 7
M  V30 7 1 5 8
M  V30 8 1 5 9
M  V30 9 1 4 10
M  V30 10 1 10 11
M  V30 11 1 1 12
M  V30 12 1 1 13
M  V30 13 1 1 14
M  V30 14 1 2 15
M  V30 15 1 2 16
M  V30 16 1 3 17
M  V30 17 1 3 18
M  V30 18 1 4 19
M  V30 19 1 6 20
M  V30 20 1 6 21
M  V30 21 1 7 22
M  V30 22 1 7 23
M  V30 23 1 8 24
M  V30 24 1 9 25
M  V30 25 1 9 26
M  V30 26 1 9 27
M  V30 27 1 10 28
M  V30 28 1 10 29
M  V30 29 1 11 30
M  V30 30 1 11 31
M  V30 END BOND
M  V30 END CTAB
M  END
