
     RDKit          3D

  0  0  0  0  0  0  0  0  0  0999 V3000
M  V30 BEGIN CTAB
M  V30 COUNTS 36 38 0 0 0
M  V30 BEGIN ATOM
M  V30 1 N -4.58267 -2.11868 0.848775 0
M  V30 2 C -3.96222 -0.89972 0.49586 0
M  V30 3 C -4.74147 0.256975 0.467993 0
M  V30 4 C -4.20623 1.47977 0.133496 0
M  V30 5 C -2.86998 1.52405 -0.174196 0
M  V30 6 C -2.10029 0.356519 -0.142282 0
M  V30 7 N -2.66957 -0.817731 0.191344 0
M  V30 8 C -0.672601 0.392822 -0.469147 0 CFG=1
M  V30 9 N 0.00197039 1.50857 0.176813 0
M  V30 10 C 1.42925 1.50869 -0.0144487 0
M  V30 11 C 2.13399 2.69402 0.0131863 0
M  V30 12 C 3.50081 2.7403 -0.167337 0
M  V30 13 C 4.17695 1.5589 -0.381866 0
M  V30 14 C 3.50713 0.354067 -0.416098 0
M  V30 15 C 2.1317 0.343977 -0.230249 0
M  V30 16 N 1.41479 -0.890264 -0.262261 0
M  V30 17 C 0.00349565 -0.851301 0.0570737 0
M  V30 18 S 2.1822 -2.36896 -0.648062 0
M  V30 19 O 2.73071 -2.35868 -2.05696 0
M  V30 20 O 1.15529 -3.46507 -0.61217 0
M  V30 21 N 3.42841 -2.81218 0.454225 0
M  V30 22 H -4.46949 -2.93593 0.224764 0
M  V30 23 H -5.13121 -2.17946 1.70821 0
M  V30 24 H -5.79976 0.204513 0.714722 0
M  V30 25 H -4.78875 2.39365 0.10403 0
M  V30 26 H -2.35526 2.44528 -0.451219 0
M  V30 27 H -0.556575 0.473515 -1.58665 0
M  V30 28 H -0.444175 2.2468 0.722532 0
M  V30 29 H 1.59137 3.63931 0.185615 0
M  V30 30 H 4.0276 3.70431 -0.138525 0
M  V30 31 H 5.2657 1.54397 -0.531229 0
M  V30 32 H 4.07178 -0.575524 -0.593304 0
M  V30 33 H -0.514128 -1.77496 -0.294426 0
M  V30 34 H -0.0855328 -0.794134 1.17784 0
M  V30 35 H 4.13144 -3.41555 0.016224 0
M  V30 36 H 3.0653 -3.11186 1.36254 0
M  V30 END ATOM
M  V30 BEGIN BOND
M  V30 1 1 1 2
M  V30 2 2 2 3
M  V30 3 1 3 4
M  V30 4 2 4 5
M  V30 5 1 5 6
M  V30 6 2 6 7
M  V30 7 1 6 8
M  V30 8 1 8 9
M  V30 9 1 9 10
M  V30 10 2 10 11
M  V30 11 1 11 12
M  V30 12 2 12 13
M  V30 13 1 13 14
M  V30 14 2 14 15
M  V30 15 1 15 16
M  V30 16 1 16 17
M  V30 17 1 16 18
M  V30 18 2 18 19
M  V30 19 2 18 20
M  V30 20 1 18 21
M  V30 21 1 7 2
M  V30 22 1 17 8
M  V30 23 1 15 10
M  V30 24 1 1 22
M  V30 25 1 1 23
M  V30 26 1 3 24
M  V30 27 1 4 25
M  V30 28 1 5 26
M  V30 29 1 8 27 CFG=3
M  V30 30 1 9 28
M  V30 31 1 11 29
M  V30 32 1 12 30
M  V30 33 1 13 31
M  V30 34 1 14 32
M  V30 35 1 17 33
M  V30 36 1 17 34
M  V30 37 1 21 35
M  V30 38 1 21 36
M  V30 END BOND
M  V30 END CTAB
M  END
