
     RDKit          3D

  0  0  0  0  0  0  0  0  0  0999 V3000
M  V30 BEGIN CTAB
M  V30 COUNTS 53 55 0 0 0
M  V30 BEGIN ATOM
M  V30 1 C -5.17585 -1.9913 -1.63577 0
M  V30 2 C -4.07531 -1.16447 -0.995912 0
M  V30 3 C -4.68435 -0.015803 -0.305028 0
M  V30 4 C -3.85435 0.871698 0.349931 0
M  V30 5 C -4.42132 1.9509 0.998113 0
M  V30 6 N -3.53468 2.842 1.66109 0
M  V30 7 N -5.76199 2.11708 0.980105 0
M  V30 8 C -6.57534 1.2614 0.347616 0
M  V30 9 N -7.99693 1.48582 0.360332 0
M  V30 10 N -6.03087 0.21385 -0.282116 0
M  V30 11 C -2.40293 0.63324 0.332815 0
M  V30 12 C -1.8019 -0.247251 1.19409 0
M  V30 13 C -0.408563 -0.46778 1.16981 0
M  V30 14 C 0.395825 0.191432 0.284875 0
M  V30 15 C -0.222547 1.09402 -0.598737 0
M  V30 16 C -1.58179 1.29318 -0.558343 0
M  V30 17 N 1.81425 0.0405728 0.237533 0
M  V30 18 C 2.64111 0.539073 1.3218 0
M  V30 19 C 2.48828 -0.592275 -0.872225 0
M  V30 20 C 3.95821 -0.628254 -0.689487 0
M  V30 21 C 4.78119 0.420411 -1.05154 0
M  V30 22 C 6.14882 0.361871 -0.874059 0
M  V30 23 C 6.73248 -0.739082 -0.333021 0
M  V30 24 C 5.93155 -1.79872 0.0361308 0
M  V30 25 C 4.55882 -1.74131 -0.141382 0
M  V30 26 C 8.17187 -0.835268 -0.130297 0
M  V30 27 O 9.00571 0.217319 -0.490492 0
M  V30 28 O 8.71232 -1.85223 0.368631 0
M  V30 29 N 0.146725 -1.40199 2.0865 0 CHG=1
M  V30 30 O 1.27845 -2.09343 1.78579 0 CHG=-1
M  V30 31 O -0.38466 -1.62404 3.20503 0
M  V30 32 H -5.1194 -1.94131 -2.76197 0
M  V30 33 H -6.17849 -1.66802 -1.27713 0
M  V30 34 H -5.10575 -3.07449 -1.32379 0
M  V30 35 H -3.37901 -0.875343 -1.80693 0
M  V30 36 H -3.59752 -1.80279 -0.229774 0
M  V30 37 H -2.82758 3.4228 1.13505 0
M  V30 38 H -3.58401 2.92328 2.68446 0
M  V30 39 H -8.41171 2.39534 0.137704 0
M  V30 40 H -8.58305 0.671295 0.608587 0
M  V30 41 H -2.37827 -0.803072 1.92157 0
M  V30 42 H 0.410814 1.61842 -1.30334 0
M  V30 43 H -2.07411 1.99774 -1.24635 0
M  V30 44 H 3.1332 1.49937 1.00083 0
M  V30 45 H 1.97 0.849743 2.16409 0
M  V30 46 H 3.40908 -0.151696 1.65472 0
M  V30 47 H 2.21619 -0.119583 -1.84563 0
M  V30 48 H 2.13536 -1.64136 -0.925871 0
M  V30 49 H 4.29948 1.29003 -1.48149 0
M  V30 50 H 6.79754 1.19329 -1.1618 0
M  V30 51 H 6.36121 -2.69131 0.469893 0
M  V30 52 H 3.94975 -2.58179 0.154472 0
M  V30 53 H 8.70407 1.14878 -0.272715 0
M  V30 END ATOM
M  V30 BEGIN BOND
M  V30 1 1 1 2
M  V30 2 1 2 3
M  V30 3 2 3 4
M  V30 4 1 4 5
M  V30 5 1 5 6
M  V30 6 2 5 7
M  V30 7 1 7 8
M  V30 8 1 8 9
M  V30 9 2 8 10
M  V30 10 1 4 11
M  V30 11 2 11 12
M  V30 12 1 12 13
M  V30 13 2 13 14
M  V30 14 1 14 15
M  V30 15 2 15 16
M  V30 16 1 14 17
M  V30 17 1 17 18
M  V30 18 1 17 19
M  V30 19 1 19 20
M  V30 20 2 20 21
M  V30 21 1 21 22
M  V30 22 2 22 23
M  V30 23 1 23 24
M  V30 24 2 24 25
M  V30 25 1 23 26
M  V30 26 1 26 27
M  V30 27 2 26 28
M  V30 28 1 13 29
M  V30 29 1 29 30
M  V30 30 2 29 31
M  V30 31 1 10 3
M  V30 32 1 16 11
M  V30 33 1 25 20
M  V30 34 1 1 32
M  V30 35 1 1 33
M  V30 36 1 1 34
M  V30 37 1 2 35
M  V30 38 1 2 36
M  V30 39 1 6 37
M  V30 40 1 6 38
M  V30 41 1 9 39
M  V30 42 1 9 40
M  V30 43 1 12 41
M  V30 44 1 15 42
M  V30 45 1 16 43
M  V30 46 1 18 44
M  V30 47 1 18 45
M  V30 48 1 18 46
M  V30 49 1 19 47
M  V30 50 1 19 48
M  V30 51 1 21 49
M  V30 52 1 22 50
M  V30 53 1 24 51
M  V30 54 1 25 52
M  V30 55 1 27 53
M  V30 END BOND
M  V30 END CTAB
M  END
