
     RDKit          3D

  0  0  0  0  0  0  0  0  0  0999 V3000
M  V30 BEGIN CTAB
M  V30 COUNTS 29 30 0 0 0
M  V30 BEGIN ATOM
M  V30 1 C -1.70149 0.467022 -1.84074 0
M  V30 2 C -1.79026 -0.257558 -0.56098 0
M  V30 3 C -0.843036 0.146812 0.541853 0
M  V30 4 C -1.09428 -0.635396 1.86588 0
M  V30 5 C -1.31558 0.832819 1.78005 0
M  V30 6 C 0.617229 0.111305 0.219622 0
M  V30 7 N 1.49185 -0.559429 1.03491 0
M  V30 8 C 2.80528 -0.622774 0.761076 0
M  V30 9 N 3.605 -1.34511 1.69803 0
M  V30 10 N 3.30991 -0.0292203 -0.327477 0
M  V30 11 C 2.48299 0.648722 -1.17243 0
M  V30 12 N 1.1789 0.684177 -0.85158 0
M  V30 13 N 2.99921 1.26496 -2.33913 0
M  V30 14 C -3.21927 -0.306117 -0.12501 0
M  V30 15 H -2.14495 1.50274 -1.81324 0
M  V30 16 H -2.41142 -0.0957851 -2.54511 0
M  V30 17 H -0.759827 0.461087 -2.39286 0
M  V30 18 H -1.51188 -1.34328 -0.794723 0
M  V30 19 H -1.94385 -1.29423 1.92914 0
M  V30 20 H -0.201452 -0.964697 2.43365 0
M  V30 21 H -0.585061 1.49232 2.34178 0
M  V30 22 H -2.36138 1.15573 1.9069 0
M  V30 23 H 4.50562 -1.81159 1.41479 0
M  V30 24 H 3.34794 -1.44974 2.69955 0
M  V30 25 H 3.39339 2.21322 -2.29275 0
M  V30 26 H 2.98012 0.76962 -3.22976 0
M  V30 27 H -3.45299 -1.14189 0.558481 0
M  V30 28 H -3.58768 0.666738 0.172759 0
M  V30 29 H -3.79302 -0.560448 -1.0727 0
M  V30 END ATOM
M  V30 BEGIN BOND
M  V30 1 1 1 2
M  V30 2 1 2 3
M  V30 3 1 3 4
M  V30 4 1 4 5
M  V30 5 1 3 6
M  V30 6 2 6 7
M  V30 7 1 7 8
M  V30 8 1 8 9
M  V30 9 2 8 10
M  V30 10 1 10 11
M  V30 11 2 11 12
M  V30 12 1 11 13
M  V30 13 1 2 14
M  V30 14 1 5 3
M  V30 15 1 12 6
M  V30 16 1 1 15
M  V30 17 1 1 16
M  V30 18 1 1 17
M  V30 19 1 2 18
M  V30 20 1 4 19
M  V30 21 1 4 20
M  V30 22 1 5 21
M  V30 23 1 5 22
M  V30 24 1 9 23
M  V30 25 1 9 24
M  V30 26 1 13 25
M  V30 27 1 13 26
M  V30 28 1 14 27
M  V30 29 1 14 28
M  V30 30 1 14 29
M  V30 END BOND
M  V30 END CTAB
M  END
