
     RDKit          3D

  0  0  0  0  0  0  0  0  0  0999 V3000
M  V30 BEGIN CTAB
M  V30 COUNTS 58 61 0 0 0
M  V30 BEGIN ATOM
M  V30 1 C -7.0915 3.55943 0.718766 0
M  V30 2 O -5.80404 3.74639 0.168644 0
M  V30 3 C -4.91832 2.68699 0.163612 0
M  V30 4 C -5.25644 1.45628 0.67993 0
M  V30 5 C -4.38547 0.405167 0.678073 0
M  V30 6 C -3.11681 0.585085 0.137136 0
M  V30 7 C -2.74152 1.79889 -0.387367 0
M  V30 8 C -3.64734 2.83264 -0.367084 0
M  V30 9 N -2.20194 -0.483331 0.163538 0
M  V30 10 C -2.04798 -1.13333 1.47802 0
M  V30 11 C -0.636599 -1.5062 1.74442 0
M  V30 12 N 0.335064 -1.11917 0.760275 0
M  V30 13 C 0.0503015 -0.77933 -0.621934 0
M  V30 14 C -1.437 -1.00441 -0.919706 0
M  V30 15 C -1.63248 -2.50998 -1.07782 0
M  V30 16 C -1.79035 -0.3857 -2.2225 0
M  V30 17 C 1.70368 -1.07106 1.19122 0
M  V30 18 C 2.70327 -0.736361 0.304561 0
M  V30 19 C 4.00196 -0.693037 0.717237 0
M  V30 20 N 4.26482 -0.984308 2.00058 0
M  V30 21 C 3.30575 -1.31406 2.8863 0
M  V30 22 N 2.05444 -1.34858 2.45913 0
M  V30 23 N 3.6917 -1.60357 4.22046 0
M  V30 24 C 5.13258 -0.345943 -0.166499 0
M  V30 25 C 5.15955 -0.976854 -1.50652 0
M  V30 26 C 4.80534 0.314186 -2.14786 0
M  V30 27 C 4.87849 0.998162 -0.806398 0
M  V30 28 N 5.79731 0.870789 -3.04792 0
M  V30 29 H -7.06764 3.34379 1.81099 0
M  V30 30 H -7.63474 2.70617 0.229383 0
M  V30 31 H -7.6852 4.49901 0.572908 0
M  V30 32 H -6.2596 1.32631 1.10344 0
M  V30 33 H -4.62091 -0.574678 1.07648 0
M  V30 34 H -1.76718 1.96849 -0.8025 0
M  V30 35 H -3.41049 3.8162 -0.766325 0
M  V30 36 H -2.46349 -0.528931 2.29843 0
M  V30 37 H -2.65921 -2.05601 1.42374 0
M  V30 38 H -0.547831 -2.62152 1.89111 0
M  V30 39 H -0.306927 -1.02915 2.71148 0
M  V30 40 H 0.295131 0.292942 -0.793856 0
M  V30 41 H 0.600469 -1.4327 -1.32867 0
M  V30 42 H -0.71285 -2.87848 -1.61822 0
M  V30 43 H -2.48708 -2.75233 -1.74241 0
M  V30 44 H -1.77908 -3.03397 -0.12924 0
M  V30 45 H -2.83044 -0.0337701 -2.23858 0
M  V30 46 H -1.61768 -1.13896 -3.05029 0
M  V30 47 H -1.06308 0.452723 -2.42834 0
M  V30 48 H 2.48686 -0.504098 -0.722244 0
M  V30 49 H 3.5508 -2.55686 4.59894 0
M  V30 50 H 4.11314 -0.886031 4.83303 0
M  V30 51 H 6.10689 -0.394837 0.387194 0
M  V30 52 H 4.4704 -1.82639 -1.67999 0
M  V30 53 H 6.20936 -1.29986 -1.77144 0
M  V30 54 H 3.78125 0.272917 -2.58621 0
M  V30 55 H 3.91537 1.49444 -0.497746 0
M  V30 56 H 5.7643 1.65671 -0.686449 0
M  V30 57 H 6.73526 0.573375 -2.66782 0
M  V30 58 H 5.70773 1.88673 -3.17493 0
M  V30 END ATOM
M  V30 BEGIN BOND
M  V30 1 1 1 2
M  V30 2 1 2 3
M  V30 3 2 3 4
M  V30 4 1 4 5
M  V30 5 2 5 6
M  V30 6 1 6 7
M  V30 7 2 7 8
M  V30 8 1 6 9
M  V30 9 1 9 10
M  V30 10 1 10 11
M  V30 11 1 11 12
M  V30 12 1 12 13
M  V30 13 1 13 14
M  V30 14 1 14 15
M  V30 15 1 14 16
M  V30 16 1 12 17
M  V30 17 2 17 18
M  V30 18 1 18 19
M  V30 19 2 19 20
M  V30 20 1 20 21
M  V30 21 2 21 22
M  V30 22 1 21 23
M  V30 23 1 19 24
M  V30 24 1 24 25
M  V30 25 1 25 26
M  V30 26 1 26 27
M  V30 27 1 26 28
M  V30 28 1 8 3
M  V30 29 1 14 9
M  V30 30 1 22 17
M  V30 31 1 27 24
M  V30 32 1 1 29
M  V30 33 1 1 30
M  V30 34 1 1 31
M  V30 35 1 4 32
M  V30 36 1 5 33
M  V30 37 1 7 34
M  V30 38 1 8 35
M  V30 39 1 10 36
M  V30 40 1 10 37
M  V30 41 1 11 38
M  V30 42 1 11 39
M  V30 43 1 13 40
M  V30 44 1 13 41
M  V30 45 1 15 42
M  V30 46 1 15 43
M  V30 47 1 15 44
M  V30 48 1 16 45
M  V30 49 1 16 46
M  V30 50 1 16 47
M  V30 51 1 18 48
M  V30 52 1 23 49
M  V30 53 1 23 50
M  V30 54 1 24 51
M  V30 55 1 25 52
M  V30 56 1 25 53
M  V30 57 1 26 54
M  V30 58 1 27 55
M  V30 59 1 27 56
M  V30 60 1 28 57
M  V30 61 1 28 58
M  V30 END BOND
M  V30 END CTAB
M  END
