
     RDKit          3D

  0  0  0  0  0  0  0  0  0  0999 V3000
M  V30 BEGIN CTAB
M  V30 COUNTS 29 30 0 0 0
M  V30 BEGIN ATOM
M  V30 1 N -3.1119 -1.36092 1.99083 0
M  V30 2 C -3.10449 -0.388303 0.963343 0
M  V30 3 N -1.99006 0.000620317 0.343946 0
M  V30 4 C -1.89762 0.905739 -0.628256 0
M  V30 5 N -0.752674 1.33906 -1.30025 0
M  V30 6 C 0.580271 0.952252 -1.1428 0
M  V30 7 O 1.47211 1.49861 -1.8843 0
M  V30 8 N 1.05609 0.000954859 -0.231229 0
M  V30 9 C 2.4093 -0.356245 -0.086327 0
M  V30 10 C 3.43964 0.489393 -0.314328 0
M  V30 11 C 4.75385 0.0602647 -0.181576 0
M  V30 12 C 5.07869 -1.22141 0.182598 0
M  V30 13 C 4.01836 -2.07834 0.414652 0
M  V30 14 C 2.71457 -1.6795 0.290004 0
M  V30 15 N -3.10918 1.45763 -0.983157 0
M  V30 16 C -4.27135 1.12633 -0.415593 0
M  V30 17 N -5.50281 1.71539 -0.805975 0
M  V30 18 N -4.25611 0.191228 0.568035 0
M  V30 19 H -2.22508 -1.66023 2.45768 0
M  V30 20 H -4.00479 -1.79233 2.29584 0
M  V30 21 H -0.910201 2.09299 -2.0643 0
M  V30 22 H 0.326279 -0.469054 0.380011 0
M  V30 23 H 3.30922 1.53853 -0.585486 0
M  V30 24 H 5.56898 0.762649 -0.372236 0
M  V30 25 H 6.11253 -1.51739 0.275281 0
M  V30 26 H 4.30144 -3.09736 0.7049 0
M  V30 27 H 1.92589 -2.3946 0.484546 0
M  V30 28 H -5.66748 2.73046 -0.673091 0
M  V30 29 H -6.26349 1.15361 -1.23011 0
M  V30 END ATOM
M  V30 BEGIN BOND
M  V30 1 1 1 2
M  V30 2 2 2 3
M  V30 3 1 3 4
M  V30 4 1 4 5
M  V30 5 1 5 6
M  V30 6 2 6 7
M  V30 7 1 6 8
M  V30 8 1 8 9
M  V30 9 2 9 10
M  V30 10 1 10 11
M  V30 11 2 11 12
M  V30 12 1 12 13
M  V30 13 2 13 14
M  V30 14 2 4 15
M  V30 15 1 15 16
M  V30 16 1 16 17
M  V30 17 2 16 18
M  V30 18 1 18 2
M  V30 19 1 14 9
M  V30 20 1 1 19
M  V30 21 1 1 20
M  V30 22 1 5 21
M  V30 23 1 8 22
M  V30 24 1 10 23
M  V30 25 1 11 24
M  V30 26 1 12 25
M  V30 27 1 13 26
M  V30 28 1 14 27
M  V30 29 1 17 28
M  V30 30 1 17 29
M  V30 END BOND
M  V30 END CTAB
M  END
