
     RDKit          3D

  0  0  0  0  0  0  0  0  0  0999 V3000
M  V30 BEGIN CTAB
M  V30 COUNTS 25 25 0 0 0
M  V30 BEGIN ATOM
M  V30 1 N 2.63637 -1.306 0.03911 0
M  V30 2 C 2.40554 0.0947899 0.0171784 0
M  V30 3 N 3.41217 0.911324 0.0410512 0
M  V30 4 N 4.71613 0.439545 0.0907171 0
M  V30 5 N 1.0784 0.582466 -0.0750387 0
M  V30 6 C -0.0242496 -0.368854 0.0196775 0
M  V30 7 C -1.32258 0.256503 -0.390032 0
M  V30 8 C -2.41516 -0.807997 -0.286959 0
M  V30 9 C -3.6315 0.0825167 0.0110357 0
M  V30 10 C -3.02684 0.917567 1.09869 0
M  V30 11 O -3.55455 1.25932 2.17941 0
M  V30 12 N -1.71346 1.23236 0.611219 0
M  V30 13 H 2.14046 -1.9725 -0.608643 0
M  V30 14 H 3.31861 -1.74617 0.713935 0
M  V30 15 H 5.11578 -0.185037 -0.637262 0
M  V30 16 H 5.31859 0.71484 0.883405 0
M  V30 17 H 0.917723 1.61303 -0.202192 0
M  V30 18 H -0.0857281 -0.595985 1.13386 0
M  V30 19 H 0.21731 -1.32518 -0.470099 0
M  V30 20 H -1.28569 0.670433 -1.42187 0
M  V30 21 H -2.23243 -1.38815 0.632078 0
M  V30 22 H -2.52598 -1.39445 -1.20855 0
M  V30 23 H -3.84051 0.770769 -0.848282 0
M  V30 24 H -4.50094 -0.483949 0.323097 0
M  V30 25 H -1.11745 2.0288 0.913351 0
M  V30 END ATOM
M  V30 BEGIN BOND
M  V30 1 1 1 2
M  V30 2 2 2 3 CFG=2
M  V30 3 1 3 4
M  V30 4 1 2 5
M  V30 5 1 5 6
M  V30 6 1 6 7
M  V30 7 1 7 8
M  V30 8 1 8 9
M  V30 9 1 9 10
M  V30 10 2 10 11
M  V30 11 1 10 12
M  V30 12 1 12 7
M  V30 13 1 1 13
M  V30 14 1 1 14
M  V30 15 1 4 15
M  V30 16 1 4 16
M  V30 17 1 5 17
M  V30 18 1 6 18
M  V30 19 1 6 19
M  V30 20 1 7 20
M  V30 21 1 8 21
M  V30 22 1 8 22
M  V30 23 1 9 23
M  V30 24 1 9 24
M  V30 25 1 12 25
M  V30 END BOND
M  V30 END CTAB
M  END
