
     RDKit          3D

  0  0  0  0  0  0  0  0  0  0999 V3000
M  V30 BEGIN CTAB
M  V30 COUNTS 42 43 0 0 0
M  V30 BEGIN ATOM
M  V30 1 N -5.69346 2.52944 1.58019 0
M  V30 2 C -4.60662 1.78764 1.03142 0
M  V30 3 C -4.6126 0.408833 1.05546 0
M  V30 4 C -3.55514 -0.307824 0.510034 0
M  V30 5 C -2.4867 0.31941 -0.0624686 0
M  V30 6 C -2.47117 1.69366 -0.0911373 0
M  V30 7 C -3.5305 2.42365 0.455858 0
M  V30 8 N -1.36231 -0.435915 -0.672717 0
M  V30 9 C -0.151443 -0.380635 -0.0306385 0
M  V30 10 O -0.0928882 0.697035 0.773897 0
M  V30 11 N 1.01426 -1.12182 0.0114616 0
M  V30 12 C 2.22783 -0.425109 0.43636 0
M  V30 13 C 2.9142 -0.718187 1.58054 0
M  V30 14 C 4.07984 -0.0294458 1.92704 0
M  V30 15 C 4.52875 0.958934 1.09045 0
M  V30 16 C 3.86777 1.2821 -0.0630266 0
M  V30 17 C 2.72334 0.580819 -0.371855 0
M  V30 18 N 4.31967 2.3027 -0.935982 0
M  V30 19 C 1.15379 -2.506 -0.160812 0
M  V30 20 O 0.179145 -3.25209 -0.367911 0
M  V30 21 C 2.50311 -3.17236 -0.108944 0
M  V30 22 C -1.68973 -0.95357 -1.95262 0
M  V30 23 O -2.90849 -0.935158 -2.36794 0
M  V30 24 C -0.716878 -1.50496 -2.89837 0
M  V30 25 H -6.46064 2.05822 2.09553 0
M  V30 26 H -5.74923 3.56706 1.46653 0
M  V30 27 H -5.46738 -0.0920892 1.51548 0
M  V30 28 H -3.56663 -1.40861 0.535728 0
M  V30 29 H -1.62764 2.19581 -0.543331 0
M  V30 30 H -3.4943 3.49884 0.420406 0
M  V30 31 H 2.55157 -1.5033 2.23786 0
M  V30 32 H 4.59052 -0.306573 2.85666 0
M  V30 33 H 5.44944 1.48143 1.3952 0
M  V30 34 H 2.14395 0.804975 -1.2863 0
M  V30 35 H 3.72358 3.12726 -1.14581 0
M  V30 36 H 5.24375 2.23971 -1.37731 0
M  V30 37 H 3.28872 -2.48551 -0.423949 0
M  V30 38 H 2.66486 -3.47543 0.941368 0
M  V30 39 H 2.49653 -4.09411 -0.734157 0
M  V30 40 H 0.272726 -1.04051 -2.68158 0
M  V30 41 H -0.709487 -2.60125 -2.92093 0
M  V30 42 H -0.984133 -1.20707 -3.96106 0
M  V30 END ATOM
M  V30 BEGIN BOND
M  V30 1 1 1 2
M  V30 2 2 2 3
M  V30 3 1 3 4
M  V30 4 2 4 5
M  V30 5 1 5 6
M  V30 6 2 6 7
M  V30 7 1 5 8
M  V30 8 1 8 9
M  V30 9 2 9 10
M  V30 10 1 9 11
M  V30 11 1 11 12
M  V30 12 2 12 13
M  V30 13 1 13 14
M  V30 14 2 14 15
M  V30 15 1 15 16
M  V30 16 2 16 17
M  V30 17 1 16 18
M  V30 18 1 11 19
M  V30 19 2 19 20
M  V30 20 1 19 21
M  V30 21 1 8 22
M  V30 22 2 22 23
M  V30 23 1 22 24
M  V30 24 1 7 2
M  V30 25 1 17 12
M  V30 26 1 1 25
M  V30 27 1 1 26
M  V30 28 1 3 27
M  V30 29 1 4 28
M  V30 30 1 6 29
M  V30 31 1 7 30
M  V30 32 1 13 31
M  V30 33 1 14 32
M  V30 34 1 15 33
M  V30 35 1 17 34
M  V30 36 1 18 35
M  V30 37 1 18 36
M  V30 38 1 21 37
M  V30 39 1 21 38
M  V30 40 1 21 39
M  V30 41 1 24 40
M  V30 42 1 24 41
M  V30 43 1 24 42
M  V30 END BOND
M  V30 END CTAB
M  END
