
     RDKit          3D

  0  0  0  0  0  0  0  0  0  0999 V3000
M  V30 BEGIN CTAB
M  V30 COUNTS 33 34 0 0 0
M  V30 BEGIN ATOM
M  V30 1 N -0.411173 0.133881 -2.35778 0
M  V30 2 C 0.610264 0.100904 -1.39839 0
M  V30 3 C 0.48247 0.631002 -0.142323 0
M  V30 4 C 1.58255 0.53297 0.718676 0
M  V30 5 C 2.75172 -0.0753607 0.316016 0
M  V30 6 C 2.87286 -0.606795 -0.950024 0
M  V30 7 Cl 4.38419 -1.38661 -1.45319 0
M  V30 8 C 1.80181 -0.516203 -1.80113 0
M  V30 9 S 4.13716 -0.20753 1.3776 0
M  V30 10 N 5.48611 0.598708 0.672586 0
M  V30 11 O 3.8313 0.309813 2.75136 0
M  V30 12 O 4.46982 -1.66463 1.51862 0
M  V30 13 S -0.985375 1.38646 0.350849 0
M  V30 14 N -1.27578 2.6902 -0.488909 0
M  V30 15 O -0.800642 1.90056 1.77493 0
M  V30 16 C -2.38209 0.347321 0.325914 0
M  V30 17 C -2.62601 -0.527973 1.37605 0
M  V30 18 C -3.72968 -1.35264 1.39068 0
M  V30 19 C -4.64101 -1.33976 0.354662 0
M  V30 20 C -4.41418 -0.478626 -0.692704 0
M  V30 21 C -3.29172 0.355509 -0.700266 0
M  V30 22 H -0.909652 -0.759634 -2.61083 0
M  V30 23 H -0.73206 0.989384 -2.85908 0
M  V30 24 H 1.48501 0.951197 1.71276 0
M  V30 25 H 1.91047 -0.939902 -2.79823 0
M  V30 26 H 6.33444 -0.028207 0.685797 0
M  V30 27 H 5.72177 1.39867 1.29855 0
M  V30 28 H -2.0521 3.27309 -0.146539 0
M  V30 29 H -1.90048 -0.538877 2.20181 0
M  V30 30 H -3.92286 -2.04088 2.21485 0
M  V30 31 H -5.51406 -2.00104 0.37939 0
M  V30 32 H -5.12328 -0.465787 -1.50305 0
M  V30 33 H -3.1498 1.01468 -1.51865 0
M  V30 END ATOM
M  V30 BEGIN BOND
M  V30 1 1 1 2
M  V30 2 2 2 3
M  V30 3 1 3 4
M  V30 4 2 4 5
M  V30 5 1 5 6
M  V30 6 1 6 7
M  V30 7 2 6 8
M  V30 8 1 5 9
M  V30 9 1 9 10
M  V30 10 2 9 11
M  V30 11 2 9 12
M  V30 12 1 3 13
M  V30 13 2 13 14 CFG=2
M  V30 14 2 13 15
M  V30 15 1 13 16
M  V30 16 2 16 17
M  V30 17 1 17 18
M  V30 18 2 18 19
M  V30 19 1 19 20
M  V30 20 2 20 21
M  V30 21 1 8 2
M  V30 22 1 21 16
M  V30 23 1 1 22
M  V30 24 1 1 23
M  V30 25 1 4 24
M  V30 26 1 8 25
M  V30 27 1 10 26
M  V30 28 1 10 27
M  V30 29 1 14 28
M  V30 30 1 17 29
M  V30 31 1 18 30
M  V30 32 1 19 31
M  V30 33 1 20 32
M  V30 34 1 21 33
M  V30 END BOND
M  V30 END CTAB
M  END
