
     RDKit          3D

  0  0  0  0  0  0  0  0  0  0999 V3000
M  V30 BEGIN CTAB
M  V30 COUNTS 21 22 0 0 0
M  V30 BEGIN ATOM
M  V30 1 N -2.85992 1.35768 0.311271 0
M  V30 2 C -2.81149 -0.0980887 0.140382 0
M  V30 3 C -1.41564 -0.620669 0.387761 0
M  V30 4 C -0.333343 -0.122664 -0.462411 0
M  V30 5 C -0.872796 -1.49824 -0.682896 0
M  V30 6 F -1.61377 -1.68278 -1.84278 0
M  V30 7 F -0.103643 -2.58568 -0.319333 0
M  V30 8 C 1.08647 -0.105646 0.0277861 0
M  V30 9 O 1.59939 -0.925949 0.911452 0
M  V30 10 N 2.85167 -0.646729 1.11791 0
M  V30 11 C 3.19187 0.393562 0.349456 0
M  V30 12 N 2.08089 0.727236 -0.330778 0
M  V30 13 N 4.45163 1.05429 0.232401 0
M  V30 14 H -3.74787 1.66041 -0.163322 0
M  V30 15 H -2.95533 1.61641 1.32702 0
M  V30 16 H -3.11599 -0.272702 -0.922434 0
M  V30 17 H -3.49709 -0.617544 0.821984 0
M  V30 18 H -1.20339 -0.947928 1.43295 0
M  V30 19 H -0.572846 0.659428 -1.21632 0
M  V30 20 H 5.35181 0.559646 0.290371 0
M  V30 21 H 4.4894 2.09595 0.0792226 0
M  V30 END ATOM
M  V30 BEGIN BOND
M  V30 1 1 1 2
M  V30 2 1 2 3
M  V30 3 1 3 4
M  V30 4 1 4 5
M  V30 5 1 5 6
M  V30 6 1 5 7
M  V30 7 1 4 8
M  V30 8 1 8 9
M  V30 9 1 9 10
M  V30 10 2 10 11
M  V30 11 1 11 12
M  V30 12 1 11 13
M  V30 13 1 5 3
M  V30 14 2 12 8
M  V30 15 1 1 14
M  V30 16 1 1 15
M  V30 17 1 2 16
M  V30 18 1 2 17
M  V30 19 1 3 18
M  V30 20 1 4 19
M  V30 21 1 13 20
M  V30 22 1 13 21
M  V30 END BOND
M  V30 END CTAB
M  END
