
     RDKit          3D

  0  0  0  0  0  0  0  0  0  0999 V3000
M  V30 BEGIN CTAB
M  V30 COUNTS 30 30 0 0 0
M  V30 BEGIN ATOM
M  V30 1 N 0.356041 -1.54333 1.59536 0
M  V30 2 C -0.508722 -0.598663 0.97944 0
M  V30 3 C -1.82743 -1.2563 0.556002 0
M  V30 4 C -2.77811 -0.105196 0.31803 0
M  V30 5 C -2.2926 0.674487 -0.851324 0
M  V30 6 C -0.862763 1.04337 -0.836467 0
M  V30 7 C 0.0662665 0.0437376 -0.241999 0
M  V30 8 N 1.35197 0.595929 0.045385 0
M  V30 9 S 2.63099 -0.13415 -0.83966 0
M  V30 10 O 3.76503 0.874914 -0.949079 0
M  V30 11 O 2.18838 -0.597147 -2.19198 0
M  V30 12 N 3.2632 -1.47252 0.0574297 0
M  V30 13 C 1.43898 2.01209 -0.113516 0
M  V30 14 H 0.230823 -1.47746 2.6443 0
M  V30 15 H 0.0233463 -2.50871 1.34241 0
M  V30 16 H -0.780148 0.215383 1.68873 0
M  V30 17 H -2.18063 -1.97203 1.29721 0
M  V30 18 H -1.62154 -1.71724 -0.440939 0
M  V30 19 H -3.80878 -0.460616 0.103432 0
M  V30 20 H -2.78162 0.50361 1.24473 0
M  V30 21 H -2.90227 1.62446 -0.895866 0
M  V30 22 H -2.57683 0.131254 -1.79891 0
M  V30 23 H -0.751445 2.03785 -0.360057 0
M  V30 24 H -0.541476 1.19512 -1.90902 0
M  V30 25 H 0.218281 -0.766457 -1.00926 0
M  V30 26 H 3.34573 -1.24421 1.07157 0
M  V30 27 H 2.74734 -2.348 -0.118757 0
M  V30 28 H 1.16178 2.38378 -1.11237 0
M  V30 29 H 0.906671 2.57324 0.702656 0
M  V30 30 H 2.51954 2.29281 0.0225044 0
M  V30 END ATOM
M  V30 BEGIN BOND
M  V30 1 1 1 2
M  V30 2 1 2 3
M  V30 3 1 3 4
M  V30 4 1 4 5
M  V30 5 1 5 6
M  V30 6 1 6 7
M  V30 7 1 7 8
M  V30 8 1 8 9
M  V30 9 2 9 10
M  V30 10 2 9 11
M  V30 11 1 9 12
M  V30 12 1 8 13
M  V30 13 1 7 2
M  V30 14 1 1 14
M  V30 15 1 1 15
M  V30 16 1 2 16
M  V30 17 1 3 17
M  V30 18 1 3 18
M  V30 19 1 4 19
M  V30 20 1 4 20
M  V30 21 1 5 21
M  V30 22 1 5 22
M  V30 23 1 6 23
M  V30 24 1 6 24
M  V30 25 1 7 25
M  V30 26 1 12 26
M  V30 27 1 12 27
M  V30 28 1 13 28
M  V30 29 1 13 29
M  V30 30 1 13 30
M  V30 END BOND
M  V30 END CTAB
M  END
