
     RDKit          3D

  0  0  0  0  0  0  0  0  0  0999 V3000
M  V30 BEGIN CTAB
M  V30 COUNTS 26 27 0 0 0
M  V30 BEGIN ATOM
M  V30 1 C 4.04992 0.484248 0.475094 0
M  V30 2 C 2.7816 -0.329843 0.411081 0
M  V30 3 C 1.95641 -0.154087 -0.822367 0
M  V30 4 N 0.790281 0.0346047 -0.00503111 0
M  V30 5 C 1.6598 0.429223 1.07996 0
M  V30 6 C -0.61355 -0.0825661 -0.11099 0
M  V30 7 C -1.46129 0.197991 0.937569 0
M  V30 8 C -2.84274 0.0785917 0.820328 0
M  V30 9 N -3.63922 0.391425 1.96144 0
M  V30 10 N -3.37406 -0.315621 -0.327753 0
M  V30 11 C -2.55294 -0.593758 -1.36363 0
M  V30 12 N -1.20391 -0.482126 -1.26486 0
M  V30 13 N -3.15608 -1.01919 -2.59707 0
M  V30 14 H 4.92779 -0.114747 0.804951 0
M  V30 15 H 4.23331 0.961694 -0.525442 0
M  V30 16 H 3.96467 1.33208 1.18762 0
M  V30 17 H 2.84371 -1.35455 0.824083 0
M  V30 18 H 1.93789 -1.03956 -1.49243 0
M  V30 19 H 2.22264 0.809464 -1.32135 0
M  V30 20 H 1.33222 0.0339971 2.06186 0
M  V30 21 H 1.78187 1.54017 1.06004 0
M  V30 22 H -1.0064 0.518072 1.86528 0
M  V30 23 H -3.24135 0.903775 2.77389 0
M  V30 24 H -4.65135 0.111796 2.01137 0
M  V30 25 H -2.70829 -0.769986 -3.4832 0
M  V30 26 H -4.03093 -1.57109 -2.62351 0
M  V30 END ATOM
M  V30 BEGIN BOND
M  V30 1 1 1 2
M  V30 2 1 2 3
M  V30 3 1 3 4
M  V30 4 1 4 5
M  V30 5 1 4 6
M  V30 6 2 6 7
M  V30 7 1 7 8
M  V30 8 1 8 9
M  V30 9 2 8 10
M  V30 10 1 10 11
M  V30 11 2 11 12
M  V30 12 1 11 13
M  V30 13 1 5 2
M  V30 14 1 12 6
M  V30 15 1 1 14
M  V30 16 1 1 15
M  V30 17 1 1 16
M  V30 18 1 2 17
M  V30 19 1 3 18
M  V30 20 1 3 19
M  V30 21 1 5 20
M  V30 22 1 5 21
M  V30 23 1 7 22
M  V30 24 1 9 23
M  V30 25 1 9 24
M  V30 26 1 13 25
M  V30 27 1 13 26
M  V30 END BOND
M  V30 END CTAB
M  END
