
     RDKit          3D

  0  0  0  0  0  0  0  0  0  0999 V3000
M  V30 BEGIN CTAB
M  V30 COUNTS 43 45 0 0 0
M  V30 BEGIN ATOM
M  V30 1 C -4.69348 1.19589 1.15661 0
M  V30 2 C -4.50611 0.364115 -0.0834511 0
M  V30 3 C -5.47575 -0.788501 -0.149585 0
M  V30 4 C -4.82414 1.2688 -1.27633 0
M  V30 5 C -3.10817 -0.109758 -0.152534 0
M  V30 6 C -2.59825 -0.93507 0.824536 0
M  V30 7 C -1.28354 -1.34326 0.715765 0
M  V30 8 C -0.499111 -0.945896 -0.326495 0
M  V30 9 S 1.19756 -1.41982 -0.570904 0
M  V30 10 C 2.30006 -0.275681 0.228104 0
M  V30 11 C 1.7513 0.643399 1.09788 0
M  V30 12 C 2.61739 1.55083 1.67062 0
M  V30 13 C 3.96712 1.53306 1.37742 0
M  V30 14 C 4.51178 0.616432 0.507906 0
M  V30 15 C 3.66774 -0.307595 -0.0792883 0
M  V30 16 C 4.22043 -1.20926 -0.954425 0
M  V30 17 N 3.39969 -2.17321 -1.57606 0
M  V30 18 N 5.56615 -1.17746 -1.2228 0
M  V30 19 C 6.38739 -0.282617 -0.654716 0
M  V30 20 N 7.77812 -0.243625 -0.952317 0
M  V30 21 N 5.83387 0.610249 0.212733 0
M  V30 22 C -1.02029 -0.10407 -1.3194 0
M  V30 23 C -2.31418 0.300001 -1.21897 0
M  V30 24 H -4.64178 0.612092 2.07818 0
M  V30 25 H -3.92053 2.00177 1.15459 0
M  V30 26 H -5.67328 1.7325 1.06121 0
M  V30 27 H -5.47708 -1.13869 -1.21247 0
M  V30 28 H -5.18245 -1.64264 0.458421 0
M  V30 29 H -6.49228 -0.413228 0.0630691 0
M  V30 30 H -4.72194 0.714404 -2.22931 0
M  V30 31 H -5.86297 1.65439 -1.10972 0
M  V30 32 H -4.14591 2.1455 -1.19141 0
M  V30 33 H -3.18372 -1.2764 1.66604 0
M  V30 34 H -0.843964 -1.99896 1.46572 0
M  V30 35 H 0.694861 0.672417 1.34122 0
M  V30 36 H 2.2207 2.29804 2.36985 0
M  V30 37 H 4.66834 2.24514 1.81367 0
M  V30 38 H 2.9718 -2.02563 -2.4997 0
M  V30 39 H 3.22392 -3.0736 -1.07995 0
M  V30 40 H 8.19063 0.501809 -1.56388 0
M  V30 41 H 8.42265 -0.958529 -0.566659 0
M  V30 42 H -0.393564 0.226661 -2.1622 0
M  V30 43 H -2.72901 0.956019 -1.98776 0
M  V30 END ATOM
M  V30 BEGIN BOND
M  V30 1 1 1 2
M  V30 2 1 2 3
M  V30 3 1 2 4
M  V30 4 1 2 5
M  V30 5 2 5 6
M  V30 6 1 6 7
M  V30 7 2 7 8
M  V30 8 1 8 9
M  V30 9 1 9 10
M  V30 10 2 10 11
M  V30 11 1 11 12
M  V30 12 2 12 13
M  V30 13 1 13 14
M  V30 14 2 14 15
M  V30 15 1 15 16
M  V30 16 1 16 17
M  V30 17 2 16 18
M  V30 18 1 18 19
M  V30 19 1 19 20
M  V30 20 2 19 21
M  V30 21 1 8 22
M  V30 22 2 22 23
M  V30 23 1 23 5
M  V30 24 1 15 10
M  V30 25 1 21 14
M  V30 26 1 1 24
M  V30 27 1 1 25
M  V30 28 1 1 26
M  V30 29 1 3 27
M  V30 30 1 3 28
M  V30 31 1 3 29
M  V30 32 1 4 30
M  V30 33 1 4 31
M  V30 34 1 4 32
M  V30 35 1 6 33
M  V30 36 1 7 34
M  V30 37 1 11 35
M  V30 38 1 12 36
M  V30 39 1 13 37
M  V30 40 1 17 38
M  V30 41 1 17 39
M  V30 42 1 20 40
M  V30 43 1 20 41
M  V30 44 1 22 42
M  V30 45 1 23 43
M  V30 END BOND
M  V30 END CTAB
M  END
