
     RDKit          3D

  0  0  0  0  0  0  0  0  0  0999 V3000
M  V30 BEGIN CTAB
M  V30 COUNTS 36 35 0 0 0
M  V30 BEGIN ATOM
M  V30 1 C -0.151342 0.157305 1.61604 0 CFG=1
M  V30 2 N -0.531541 1.49295 1.1939 0
M  V30 3 C -1.04455 -0.856594 0.909553 0
M  V30 4 C -0.891201 -0.745262 -0.593279 0
M  V30 5 C -1.78551 -1.75332 -1.23588 0
M  V30 6 N -3.1799 -1.6317 -0.944029 0
M  V30 7 C -3.97552 -0.591411 -1.40894 0
M  V30 8 N -5.35469 -0.880057 -1.71064 0
M  V30 9 N -3.52288 0.588526 -1.56917 0
M  V30 10 C 1.27205 -0.122358 1.38338 0
M  V30 11 O 1.73593 -1.22951 1.74583 0
M  V30 12 N 2.12652 0.833693 0.758163 0
M  V30 13 C 3.5318 0.582973 0.521752 0
M  V30 14 C 3.72312 0.412068 -0.99461 0
M  V30 15 C 4.41597 1.72759 0.944812 0
M  V30 16 H -0.358068 0.0785312 2.69368 0
M  V30 17 H -0.265498 2.23535 1.87769 0
M  V30 18 H -0.261896 1.72392 0.231585 0
M  V30 19 H -0.71984 -1.85449 1.24624 0
M  V30 20 H -2.09614 -0.708452 1.15205 0
M  V30 21 H 0.162965 -0.960246 -0.899175 0
M  V30 22 H -1.11307 0.277819 -0.921259 0
M  V30 23 H -1.46988 -2.80117 -0.960051 0
M  V30 24 H -1.65939 -1.72735 -2.3591 0
M  V30 25 H -3.6314 -2.36999 -0.341265 0
M  V30 26 H -5.95957 -1.31552 -0.985014 0
M  V30 27 H -5.77291 -0.665946 -2.63713 0
M  V30 28 H -4.12366 1.38204 -1.9227 0
M  V30 29 H 1.76184 1.75754 0.447115 0
M  V30 30 H 3.88473 -0.372453 0.942294 0
M  V30 31 H 3.51612 1.39976 -1.44493 0
M  V30 32 H 2.98564 -0.34751 -1.3553 0
M  V30 33 H 4.75876 0.0979497 -1.19945 0
M  V30 34 H 5.02415 1.49787 1.84706 0
M  V30 35 H 5.13136 2.0473 0.160832 0
M  V30 36 H 3.83748 2.64015 1.21783 0
M  V30 END ATOM
M  V30 BEGIN BOND
M  V30 1 1 1 2
M  V30 2 1 1 3
M  V30 3 1 3 4
M  V30 4 1 4 5
M  V30 5 1 5 6
M  V30 6 1 6 7
M  V30 7 1 7 8
M  V30 8 2 7 9 CFG=2
M  V30 9 1 1 10
M  V30 10 2 10 11
M  V30 11 1 10 12
M  V30 12 1 12 13
M  V30 13 1 13 14
M  V30 14 1 13 15
M  V30 15 1 1 16 CFG=1
M  V30 16 1 2 17
M  V30 17 1 2 18
M  V30 18 1 3 19
M  V30 19 1 3 20
M  V30 20 1 4 21
M  V30 21 1 4 22
M  V30 22 1 5 23
M  V30 23 1 5 24
M  V30 24 1 6 25
M  V30 25 1 8 26
M  V30 26 1 8 27
M  V30 27 1 9 28
M  V30 28 1 12 29
M  V30 29 1 13 30
M  V30 30 1 14 31
M  V30 31 1 14 32
M  V30 32 1 14 33
M  V30 33 1 15 34
M  V30 34 1 15 35
M  V30 35 1 15 36
M  V30 END BOND
M  V30 END CTAB
M  END
