
     RDKit          3D

  0  0  0  0  0  0  0  0  0  0999 V3000
M  V30 BEGIN CTAB
M  V30 COUNTS 30 30 0 0 0
M  V30 BEGIN ATOM
M  V30 1 C 2.60874 -1.13696 -0.552456 0
M  V30 2 C 2.16817 0.179109 -0.0199901 0
M  V30 3 C 1.28276 1.00247 -0.862344 0
M  V30 4 C -0.064921 0.565686 -1.27813 0
M  V30 5 C -1.07731 0.317003 -0.262162 0
M  V30 6 C -1.3942 -0.894438 0.222325 0
M  V30 7 C -0.93154 -2.21159 -0.316443 0
M  V30 8 C -2.31922 -0.959669 1.28206 0
M  V30 9 C -2.87136 0.191565 1.78736 0
M  V30 10 N -2.52543 1.3897 1.26629 0
M  V30 11 C -1.65665 1.50239 0.268388 0
M  V30 12 N -1.30961 2.77376 -0.254673 0
M  V30 13 N 1.55054 0.039466 1.29681 0
M  V30 14 H 3.65758 -1.13115 -0.972291 0
M  V30 15 H 1.97095 -1.47919 -1.41494 0
M  V30 16 H 2.62077 -1.93194 0.240406 0
M  V30 17 H 3.14096 0.770729 0.104391 0
M  V30 18 H 1.23667 2.01856 -0.324229 0
M  V30 19 H 1.90183 1.2735 -1.78106 0
M  V30 20 H 0.0811716 -0.39887 -1.86011 0
M  V30 21 H -0.489659 1.29332 -2.03983 0
M  V30 22 H -1.77331 -2.94096 -0.169326 0
M  V30 23 H -0.777003 -2.11895 -1.40553 0
M  V30 24 H -0.00949478 -2.58106 0.131956 0
M  V30 25 H -2.57695 -1.931 1.67864 0
M  V30 26 H -3.58114 0.0928437 2.60562 0
M  V30 27 H -1.51523 2.95275 -1.26472 0
M  V30 28 H -0.869102 3.53832 0.285611 0
M  V30 29 H 1.62837 -0.941199 1.64873 0
M  V30 30 H 1.89361 0.755807 1.95964 0
M  V30 END ATOM
M  V30 BEGIN BOND
M  V30 1 1 1 2
M  V30 2 1 2 3
M  V30 3 1 3 4
M  V30 4 1 4 5
M  V30 5 2 5 6
M  V30 6 1 6 7
M  V30 7 1 6 8
M  V30 8 2 8 9
M  V30 9 1 9 10
M  V30 10 2 10 11
M  V30 11 1 11 12
M  V30 12 1 2 13
M  V30 13 1 11 5
M  V30 14 1 1 14
M  V30 15 1 1 15
M  V30 16 1 1 16
M  V30 17 1 2 17
M  V30 18 1 3 18
M  V30 19 1 3 19
M  V30 20 1 4 20
M  V30 21 1 4 21
M  V30 22 1 7 22
M  V30 23 1 7 23
M  V30 24 1 7 24
M  V30 25 1 8 25
M  V30 26 1 9 26
M  V30 27 1 12 27
M  V30 28 1 12 28
M  V30 29 1 13 29
M  V30 30 1 13 30
M  V30 END BOND
M  V30 END CTAB
M  END
