
     RDKit          3D

  0  0  0  0  0  0  0  0  0  0999 V3000
M  V30 BEGIN CTAB
M  V30 COUNTS 61 62 0 0 0
M  V30 BEGIN ATOM
M  V30 1 N -8.68276 -2.99091 0.280159 0
M  V30 2 C -7.62267 -3.25602 -0.638403 0
M  V30 3 C -6.5268 -2.24148 -0.620523 0
M  V30 4 C -7.01921 -0.850848 -0.967867 0
M  V30 5 C -5.91907 0.126648 -0.94235 0
M  V30 6 C -5.15734 0.411545 -2.05193 0
M  V30 7 C -4.14359 1.31884 -2.00705 0
M  V30 8 C -3.81597 2.01617 -0.828236 0
M  V30 9 O -2.78998 2.91707 -0.84793 0
M  V30 10 C -2.29894 3.6591 0.200847 0
M  V30 11 C -1.65985 2.83734 1.26966 0
M  V30 12 C -0.473892 2.03706 0.716221 0
M  V30 13 C 0.0897299 1.24808 1.88386 0
M  V30 14 C 1.27618 0.412258 1.45391 0
M  V30 15 O 2.31559 1.23047 0.939362 0
M  V30 16 C 3.50118 0.673829 0.484857 0
M  V30 17 C 3.67982 -0.68722 0.529911 0
M  V30 18 C 4.86389 -1.21626 0.0735929 0
M  V30 19 C 5.8488 -0.390579 -0.418493 0
M  V30 20 C 7.13181 -0.929457 -0.916026 0
M  V30 21 C 8.08194 -0.970281 0.276572 0
M  V30 22 C 9.41439 -1.50917 -0.149272 0
M  V30 23 N 9.33678 -2.83799 -0.681924 0
M  V30 24 C 5.66727 0.984308 -0.463541 0
M  V30 25 C 4.47832 1.5018 -0.00412485 0
M  V30 26 C -4.58831 1.72018 0.271171 0
M  V30 27 C -5.62106 0.791545 0.215419 0
M  V30 28 H -9.53006 -2.60058 -0.190679 0
M  V30 29 H -8.43453 -2.31671 1.03283 0
M  V30 30 H -8.04045 -3.29031 -1.67415 0
M  V30 31 H -7.18367 -4.23726 -0.385304 0
M  V30 32 H -5.93292 -2.24764 0.29729 0
M  V30 33 H -5.81374 -2.52072 -1.44916 0
M  V30 34 H -7.75524 -0.566558 -0.178603 0
M  V30 35 H -7.53303 -0.855845 -1.93482 0
M  V30 36 H -5.39403 -0.121708 -2.98841 0
M  V30 37 H -3.56325 1.52676 -2.87882 0
M  V30 38 H -3.20296 4.14701 0.697546 0
M  V30 39 H -1.64999 4.51242 -0.120506 0
M  V30 40 H -1.20793 3.48599 2.07519 0
M  V30 41 H -2.28862 2.12873 1.79292 0
M  V30 42 H -0.871636 1.34249 -0.0223649 0
M  V30 43 H 0.284728 2.6905 0.264441 0
M  V30 44 H -0.668312 0.552746 2.29703 0
M  V30 45 H 0.417874 1.9067 2.71332 0
M  V30 46 H 1.67938 -0.137473 2.32758 0
M  V30 47 H 0.998119 -0.335254 0.683498 0
M  V30 48 H 2.88838 -1.35168 0.92541 0
M  V30 49 H 5.01497 -2.30335 0.106017 0
M  V30 50 H 7.54505 -0.279415 -1.69817 0
M  V30 51 H 7.00292 -1.94629 -1.33326 0
M  V30 52 H 8.25058 0.0839998 0.612634 0
M  V30 53 H 7.64552 -1.51937 1.12214 0
M  V30 54 H 9.83563 -0.839726 -0.911188 0
M  V30 55 H 10.0659 -1.55047 0.752074 0
M  V30 56 H 8.89971 -3.52482 -0.0529154 0
M  V30 57 H 9.05562 -2.89201 -1.6653 0
M  V30 58 H 6.43019 1.64432 -0.846533 0
M  V30 59 H 4.29317 2.56302 -0.0197548 0
M  V30 60 H -4.41889 2.23405 1.20698 0
M  V30 61 H -6.18481 0.612429 1.12784 0
M  V30 END ATOM
M  V30 BEGIN BOND
M  V30 1 1 1 2
M  V30 2 1 2 3
M  V30 3 1 3 4
M  V30 4 1 4 5
M  V30 5 2 5 6
M  V30 6 1 6 7
M  V30 7 2 7 8
M  V30 8 1 8 9
M  V30 9 1 9 10
M  V30 10 1 10 11
M  V30 11 1 11 12
M  V30 12 1 12 13
M  V30 13 1 13 14
M  V30 14 1 14 15
M  V30 15 1 15 16
M  V30 16 2 16 17
M  V30 17 1 17 18
M  V30 18 2 18 19
M  V30 19 1 19 20
M  V30 20 1 20 21
M  V30 21 1 21 22
M  V30 22 1 22 23
M  V30 23 1 19 24
M  V30 24 2 24 25
M  V30 25 1 8 26
M  V30 26 2 26 27
M  V30 27 1 27 5
M  V30 28 1 25 16
M  V30 29 1 1 28
M  V30 30 1 1 29
M  V30 31 1 2 30
M  V30 32 1 2 31
M  V30 33 1 3 32
M  V30 34 1 3 33
M  V30 35 1 4 34
M  V30 36 1 4 35
M  V30 37 1 6 36
M  V30 38 1 7 37
M  V30 39 1 10 38
M  V30 40 1 10 39
M  V30 41 1 11 40
M  V30 42 1 11 41
M  V30 43 1 12 42
M  V30 44 1 12 43
M  V30 45 1 13 44
M  V30 46 1 13 45
M  V30 47 1 14 46
M  V30 48 1 14 47
M  V30 49 1 17 48
M  V30 50 1 18 49
M  V30 51 1 20 50
M  V30 52 1 20 51
M  V30 53 1 21 52
M  V30 54 1 21 53
M  V30 55 1 22 54
M  V30 56 1 22 55
M  V30 57 1 23 56
M  V30 58 1 23 57
M  V30 59 1 24 58
M  V30 60 1 25 59
M  V30 61 1 26 60
M  V30 62 1 27 61
M  V30 END BOND
M  V30 END CTAB
M  END
