
     RDKit          3D

  0  0  0  0  0  0  0  0  0  0999 V3000
M  V30 BEGIN CTAB
M  V30 COUNTS 22 23 0 0 0
M  V30 BEGIN ATOM
M  V30 1 N 4.17983 0.805044 -0.0976962 0
M  V30 2 C 2.91558 0.154393 0.0321656 0
M  V30 3 N 2.70068 -1.06939 0.551868 0
M  V30 4 N 1.40516 -1.32865 0.502808 0
M  V30 5 C 0.742717 -0.289568 -0.04604 0
M  V30 6 N 1.69999 0.614208 -0.328166 0
M  V30 7 C -0.699502 -0.194362 -0.272244 0
M  V30 8 C -1.54355 0.332239 0.690247 0
M  V30 9 N -0.948229 0.771072 1.89521 0
M  V30 10 C -2.91619 0.422442 0.474124 0
M  V30 11 C -3.48449 -0.00428546 -0.694336 0
M  V30 12 C -2.65905 -0.53294 -1.66739 0
M  V30 13 C -1.29028 -0.619376 -1.4437 0
M  V30 14 Cl -0.20943 -1.28824 -2.66356 0
M  V30 15 H 5.01287 0.200355 -0.219463 0
M  V30 16 H 4.24746 1.83834 -0.0696607 0
M  V30 17 H 3.48348 -1.65587 0.913716 0
M  V30 18 H -1.09525 0.21639 2.75517 0
M  V30 19 H -0.369684 1.62539 1.9565 0
M  V30 20 H -3.55217 0.838268 1.24361 0
M  V30 21 H -4.54642 0.045649 -0.907667 0
M  V30 22 H -3.07353 -0.881107 -2.60549 0
M  V30 END ATOM
M  V30 BEGIN BOND
M  V30 1 1 1 2
M  V30 2 1 2 3
M  V30 3 1 3 4
M  V30 4 2 4 5
M  V30 5 1 5 6
M  V30 6 1 5 7
M  V30 7 2 7 8
M  V30 8 1 8 9
M  V30 9 1 8 10
M  V30 10 2 10 11
M  V30 11 1 11 12
M  V30 12 2 12 13
M  V30 13 1 13 14
M  V30 14 2 6 2
M  V30 15 1 13 7
M  V30 16 1 1 15
M  V30 17 1 1 16
M  V30 18 1 3 17
M  V30 19 1 9 18
M  V30 20 1 9 19
M  V30 21 1 10 20
M  V30 22 1 11 21
M  V30 23 1 12 22
M  V30 END BOND
M  V30 END CTAB
M  END
