
     RDKit          3D

  0  0  0  0  0  0  0  0  0  0999 V3000
M  V30 BEGIN CTAB
M  V30 COUNTS 24 25 0 0 0
M  V30 BEGIN ATOM
M  V30 1 Cl -4.49865 -1.85581 0.637692 0
M  V30 2 C -3.69231 -0.422952 -0.0422904 0
M  V30 3 C -2.35422 -0.251443 0.650729 0
M  V30 4 O -1.61387 -1.45274 0.383695 0
M  V30 5 C -0.264602 -1.05187 0.278943 0
M  V30 6 C -0.163442 0.297185 0.0785199 0
M  V30 7 C -1.53753 0.853622 0.043812 0
M  V30 8 C 1.06341 0.948779 -0.0585693 0
M  V30 9 N 1.12524 2.35539 -0.266042 0
M  V30 10 C 2.17791 0.144632 0.0207046 0
M  V30 11 C 2.04145 -1.22879 0.225874 0
M  V30 12 N 0.850168 -1.80539 0.35081 0
M  V30 13 N 3.1793 -2.07189 0.310018 0
M  V30 14 C 3.45923 0.722174 -0.10744 0
M  V30 15 N 4.50813 1.19785 -0.220839 0
M  V30 16 H -4.28822 0.50012 0.10747 0
M  V30 17 H -3.49316 -0.642721 -1.10846 0
M  V30 18 H -2.45914 -0.0747399 1.73171 0
M  V30 19 H -1.63817 1.81934 0.541202 0
M  V30 20 H -1.83164 0.922446 -1.0439 0
M  V30 21 H 1.6571 2.80266 -1.04343 0
M  V30 22 H 0.621895 3.02576 0.375107 0
M  V30 23 H 3.81009 -2.13574 -0.510327 0
M  V30 24 H 3.34102 -2.59588 1.19035 0
M  V30 END ATOM
M  V30 BEGIN BOND
M  V30 1 1 1 2
M  V30 2 1 2 3
M  V30 3 1 3 4
M  V30 4 1 4 5
M  V30 5 2 5 6
M  V30 6 1 6 7
M  V30 7 1 6 8
M  V30 8 1 8 9
M  V30 9 2 8 10
M  V30 10 1 10 11
M  V30 11 2 11 12
M  V30 12 1 11 13
M  V30 13 1 10 14
M  V30 14 3 14 15
M  V30 15 1 7 3
M  V30 16 1 12 5
M  V30 17 1 2 16
M  V30 18 1 2 17
M  V30 19 1 3 18
M  V30 20 1 7 19
M  V30 21 1 7 20
M  V30 22 1 9 21
M  V30 23 1 9 22
M  V30 24 1 13 23
M  V30 25 1 13 24
M  V30 END BOND
M  V30 END CTAB
M  END
