
     RDKit          3D

  0  0  0  0  0  0  0  0  0  0999 V3000
M  V30 BEGIN CTAB
M  V30 COUNTS 44 47 0 0 0
M  V30 BEGIN ATOM
M  V30 1 N 6.17513 -2.67981 3.18841 0
M  V30 2 C 5.08509 -1.75135 2.97918 0
M  V30 3 N 4.55732 -1.33967 1.84573 0
M  V30 4 C 3.57341 -0.49438 1.85479 0
M  V30 5 C 3.12568 -0.0648721 3.08255 0
M  V30 6 S 4.16429 -0.917803 4.14546 0
M  V30 7 C 2.93791 0.00490927 0.598144 0
M  V30 8 C 3.38498 -0.423681 -0.633412 0
M  V30 9 C 2.81856 0.0185206 -1.80811 0
M  V30 10 C 1.77869 0.910867 -1.78139 0
M  V30 11 C 1.11921 1.43832 -2.98633 0
M  V30 12 C -0.0436201 0.609321 -3.47206 0
M  V30 13 C -1.13142 0.474867 -2.4771 0
M  V30 14 C -2.14709 1.39813 -2.43202 0
M  V30 15 C -3.17221 1.27739 -1.50727 0
M  V30 16 C -3.19849 0.232902 -0.613654 0
M  V30 17 C -2.17367 -0.695281 -0.661964 0
M  V30 18 C -1.14768 -0.58955 -1.57491 0
M  V30 19 C -4.28647 0.0830304 0.386321 0
M  V30 20 C -5.30928 1.00182 0.440806 0
M  V30 21 S -6.25941 0.384814 1.7205 0
M  V30 22 C -5.31237 -0.982298 2.10163 0
M  V30 23 N -5.4901 -1.9989 3.09432 0
M  V30 24 N -4.32386 -0.895408 1.23415 0
M  V30 25 C 1.32548 1.34436 -0.561034 0
M  V30 26 C 1.89849 0.896662 0.618727 0
M  V30 27 H 6.55699 -2.73811 4.15075 0
M  V30 28 H 6.48282 -3.20749 2.36249 0
M  V30 29 H 2.30917 0.644869 3.31521 0
M  V30 30 H 4.20524 -1.12854 -0.684901 0
M  V30 31 H 3.15688 -0.307376 -2.78311 0
M  V30 32 H 0.81411 2.48697 -2.78135 0
M  V30 33 H 1.89392 1.50668 -3.77694 0
M  V30 34 H 0.269556 -0.354326 -3.89802 0
M  V30 35 H -0.475921 1.1858 -4.33923 0
M  V30 36 H -2.13556 2.2158 -3.12438 0
M  V30 37 H -3.93736 2.01902 -1.51169 0
M  V30 38 H -2.17767 -1.51229 0.0239225 0
M  V30 39 H -0.35304 -1.31568 -1.60705 0
M  V30 40 H -5.45658 1.89806 -0.189894 0
M  V30 41 H -5.3985 -2.99518 2.88928 0
M  V30 42 H -5.72101 -1.68887 4.05555 0
M  V30 43 H 0.499138 2.05613 -0.468762 0
M  V30 44 H 1.51924 1.25738 1.58667 0
M  V30 END ATOM
M  V30 BEGIN BOND
M  V30 1 1 1 2
M  V30 2 2 2 3
M  V30 3 1 3 4
M  V30 4 2 4 5
M  V30 5 1 5 6
M  V30 6 1 4 7
M  V30 7 2 7 8
M  V30 8 1 8 9
M  V30 9 2 9 10
M  V30 10 1 10 11
M  V30 11 1 11 12
M  V30 12 1 12 13
M  V30 13 2 13 14
M  V30 14 1 14 15
M  V30 15 2 15 16
M  V30 16 1 16 17
M  V30 17 2 17 18
M  V30 18 1 16 19
M  V30 19 2 19 20
M  V30 20 1 20 21
M  V30 21 1 21 22
M  V30 22 1 22 23
M  V30 23 2 22 24
M  V30 24 1 10 25
M  V30 25 2 25 26
M  V30 26 1 6 2
M  V30 27 1 26 7
M  V30 28 1 18 13
M  V30 29 1 24 19
M  V30 30 1 1 27
M  V30 31 1 1 28
M  V30 32 1 5 29
M  V30 33 1 8 30
M  V30 34 1 9 31
M  V30 35 1 11 32
M  V30 36 1 11 33
M  V30 37 1 12 34
M  V30 38 1 12 35
M  V30 39 1 14 36
M  V30 40 1 15 37
M  V30 41 1 17 38
M  V30 42 1 18 39
M  V30 43 1 20 40
M  V30 44 1 23 41
M  V30 45 1 23 42
M  V30 46 1 25 43
M  V30 47 1 26 44
M  V30 END BOND
M  V30 END CTAB
M  END
