
     RDKit          3D

  0  0  0  0  0  0  0  0  0  0999 V3000
M  V30 BEGIN CTAB
M  V30 COUNTS 28 29 0 0 0
M  V30 BEGIN ATOM
M  V30 1 C -3.56912 2.0683 1.15574 0
M  V30 2 N -2.15537 1.82066 0.9836 0
M  V30 3 C -1.683 0.586806 0.473733 0
M  V30 4 N -0.373174 0.329943 0.303505 0
M  V30 5 C 0.0609532 -0.844236 -0.180894 0
M  V30 6 N -0.87208 -1.75923 -0.491129 0
M  V30 7 C -2.16789 -1.54722 -0.339266 0
M  V30 8 N -2.5885 -0.366089 0.147154 0
M  V30 9 N -3.11986 -2.57157 -0.691468 0
M  V30 10 C 1.4654 -1.18412 -0.388697 0
M  V30 11 C 2.42386 -0.0865866 -0.00792722 0
M  V30 12 N 2.43895 0.393152 1.35969 0
M  V30 13 C 3.81015 -0.263263 -0.622972 0
M  V30 14 C 2.93009 0.857833 -1.04265 0
M  V30 15 H -3.76217 3.01827 1.65048 0
M  V30 16 H -4.02335 1.25466 1.78668 0
M  V30 17 H -4.02311 2.01249 0.12957 0
M  V30 18 H -1.47392 2.57937 1.24566 0
M  V30 19 H -4.01885 -2.36054 -1.14069 0
M  V30 20 H -2.82791 -3.54487 -0.45601 0
M  V30 21 H 1.7259 -2.069 0.262214 0
M  V30 22 H 1.63019 -1.48621 -1.42186 0
M  V30 23 H 2.35224 1.43538 1.31257 0
M  V30 24 H 3.34694 0.20095 1.84393 0
M  V30 25 H 3.9904 -1.09541 -1.31139 0
M  V30 26 H 4.69668 -0.0601776 0.0390405 0
M  V30 27 H 3.22921 1.87016 -0.735819 0
M  V30 28 H 2.55734 0.810555 -2.08459 0
M  V30 END ATOM
M  V30 BEGIN BOND
M  V30 1 1 1 2
M  V30 2 1 2 3
M  V30 3 2 3 4
M  V30 4 1 4 5
M  V30 5 2 5 6
M  V30 6 1 6 7
M  V30 7 2 7 8
M  V30 8 1 7 9
M  V30 9 1 5 10
M  V30 10 1 10 11
M  V30 11 1 11 12
M  V30 12 1 11 13
M  V30 13 1 13 14
M  V30 14 1 8 3
M  V30 15 1 14 11
M  V30 16 1 1 15
M  V30 17 1 1 16
M  V30 18 1 1 17
M  V30 19 1 2 18
M  V30 20 1 9 19
M  V30 21 1 9 20
M  V30 22 1 10 21
M  V30 23 1 10 22
M  V30 24 1 12 23
M  V30 25 1 12 24
M  V30 26 1 13 25
M  V30 27 1 13 26
M  V30 28 1 14 27
M  V30 29 1 14 28
M  V30 END BOND
M  V30 END CTAB
M  END
