
     RDKit          3D

  0  0  0  0  0  0  0  0  0  0999 V3000
M  V30 BEGIN CTAB
M  V30 COUNTS 25 25 0 0 0
M  V30 BEGIN ATOM
M  V30 1 C 4.9328 -0.0723154 -0.0068207 0
M  V30 2 O 3.55335 -0.119498 -0.363799 0
M  V30 3 C 2.54346 -0.0632483 0.566022 0
M  V30 4 O 2.84161 0.0334374 1.77783 0
M  V30 5 C 1.1215 -0.112235 0.193459 0
M  V30 6 C 0.777262 -0.219013 -1.14187 0
M  V30 7 C -0.550611 -0.266434 -1.51179 0
M  V30 8 C -1.56939 -0.21011 -0.579495 0
M  V30 9 C -1.21178 -0.103771 0.747515 0
M  V30 10 C 0.123484 -0.0554915 1.12731 0
M  V30 11 N -2.20086 -0.0407192 1.76228 0
M  V30 12 S -3.24394 -0.272415 -1.07881 0
M  V30 13 O -3.90249 -1.49555 -0.487046 0
M  V30 14 O -3.30427 -0.379171 -2.5698 0
M  V30 15 N -4.0716 1.17019 -0.578101 0
M  V30 16 H 5.55956 -0.492051 -0.82055 0
M  V30 17 H 5.19559 1.00402 0.0836233 0
M  V30 18 H 5.13006 -0.643908 0.924817 0
M  V30 19 H 1.58931 -0.261564 -1.85431 0
M  V30 20 H -0.82328 -0.349526 -2.55011 0
M  V30 21 H 0.376855 0.0289731 2.1872 0
M  V30 22 H -2.54203 -0.911926 2.2267 0
M  V30 23 H -2.57874 0.894643 2.03323 0
M  V30 24 H -3.36805 1.95031 -0.506384 0
M  V30 25 H -4.37779 0.987385 0.418906 0
M  V30 END ATOM
M  V30 BEGIN BOND
M  V30 1 1 1 2
M  V30 2 1 2 3
M  V30 3 2 3 4
M  V30 4 1 3 5
M  V30 5 2 5 6
M  V30 6 1 6 7
M  V30 7 2 7 8
M  V30 8 1 8 9
M  V30 9 2 9 10
M  V30 10 1 9 11
M  V30 11 1 8 12
M  V30 12 2 12 13
M  V30 13 2 12 14
M  V30 14 1 12 15
M  V30 15 1 10 5
M  V30 16 1 1 16
M  V30 17 1 1 17
M  V30 18 1 1 18
M  V30 19 1 6 19
M  V30 20 1 7 20
M  V30 21 1 10 21
M  V30 22 1 11 22
M  V30 23 1 11 23
M  V30 24 1 15 24
M  V30 25 1 15 25
M  V30 END BOND
M  V30 END CTAB
M  END
