
     RDKit          3D

  0  0  0  0  0  0  0  0  0  0999 V3000
M  V30 BEGIN CTAB
M  V30 COUNTS 29 30 0 0 0
M  V30 BEGIN ATOM
M  V30 1 N 3.26622 -1.12583 -0.785014 0
M  V30 2 C 2.3005 -0.14473 -0.429449 0
M  V30 3 C 2.65788 1.16962 -0.229548 0
M  V30 4 C 1.67529 2.07034 0.112912 0
M  V30 5 C 0.361191 1.66818 0.253642 0
M  V30 6 C -0.01111 0.354321 0.0565778 0
M  V30 7 C 0.961491 -0.550016 -0.285393 0
M  V30 8 C 0.301365 -1.8672 -0.44704 0
M  V30 9 C -0.878654 -1.76773 0.484373 0
M  V30 10 C -1.34963 -0.33748 0.156163 0
M  V30 11 C -2.12476 0.141101 1.33831 0
M  V30 12 C -2.09167 -0.334512 -1.13252 0
M  V30 13 N -0.677266 2.57758 0.607085 0
M  V30 14 H 3.07584 -1.73465 -1.59031 0
M  V30 15 H 4.13981 -1.23064 -0.252567 0
M  V30 16 H 3.68543 1.49052 -0.338149 0
M  V30 17 H 1.92129 3.1258 0.280112 0
M  V30 18 H 0.973803 -2.70944 -0.191263 0
M  V30 19 H -0.105028 -1.94777 -1.47486 0
M  V30 20 H -0.500853 -1.74143 1.50657 0
M  V30 21 H -1.66253 -2.50129 0.286107 0
M  V30 22 H -2.67291 -0.691215 1.87129 0
M  V30 23 H -2.87244 0.90889 1.11932 0
M  V30 24 H -1.37056 0.49197 2.10128 0
M  V30 25 H -2.71207 -1.26374 -1.19522 0
M  V30 26 H -1.35674 -0.401397 -1.96542 0
M  V30 27 H -2.77437 0.510576 -1.26166 0
M  V30 28 H -0.854754 2.94651 1.56177 0
M  V30 29 H -1.30476 2.89366 -0.157106 0
M  V30 END ATOM
M  V30 BEGIN BOND
M  V30 1 1 1 2
M  V30 2 2 2 3
M  V30 3 1 3 4
M  V30 4 2 4 5
M  V30 5 1 5 6
M  V30 6 2 6 7
M  V30 7 1 7 8
M  V30 8 1 8 9
M  V30 9 1 9 10
M  V30 10 1 10 11
M  V30 11 1 10 12
M  V30 12 1 5 13
M  V30 13 1 7 2
M  V30 14 1 10 6
M  V30 15 1 1 14
M  V30 16 1 1 15
M  V30 17 1 3 16
M  V30 18 1 4 17
M  V30 19 1 8 18
M  V30 20 1 8 19
M  V30 21 1 9 20
M  V30 22 1 9 21
M  V30 23 1 11 22
M  V30 24 1 11 23
M  V30 25 1 11 24
M  V30 26 1 12 25
M  V30 27 1 12 26
M  V30 28 1 12 27
M  V30 29 1 13 28
M  V30 30 1 13 29
M  V30 END BOND
M  V30 END CTAB
M  END
