
     RDKit          3D

  0  0  0  0  0  0  0  0  0  0999 V3000
M  V30 BEGIN CTAB
M  V30 COUNTS 83 84 0 0 0
M  V30 BEGIN ATOM
M  V30 1 C -6.41854 -0.486152 1.46812 0 CFG=1
M  V30 2 N -7.01318 -0.134631 2.80733 0
M  V30 3 C -6.31711 0.89337 0.821048 0
M  V30 4 C -7.75405 1.50144 0.798002 0
M  V30 5 C -5.85707 0.894455 -0.595037 0
M  V30 6 C -5.07761 -0.995546 1.82198 0
M  V30 7 O -4.56135 -0.522324 2.90661 0
M  V30 8 N -4.31624 -1.94549 1.10742 0
M  V30 9 C -4.65009 -2.57227 -0.150459 0
M  V30 10 C -3.84446 -3.83385 -0.23831 0
M  V30 11 C -3.21902 -3.96876 1.13264 0
M  V30 12 C -3.07121 -2.52452 1.55917 0 CFG=1
M  V30 13 C -1.93281 -1.828 0.93683 0
M  V30 14 O -0.740815 -2.23358 1.04735 0
M  V30 15 N -2.1072 -0.641248 0.169853 0
M  V30 16 C -0.961086 0.0650374 -0.444369 0 CFG=1
M  V30 17 C -1.17136 0.0972018 -1.95667 0
M  V30 18 C -1.22976 -1.24668 -2.55939 0
M  V30 19 O -0.0487283 -1.96557 -2.80876 0
M  V30 20 O -2.30957 -1.78021 -2.86188 0
M  V30 21 C -0.955141 1.4082 0.131051 0
M  V30 22 O -1.95313 1.76397 0.878392 0
M  V30 23 N 0.0912375 2.33975 -0.0898677 0
M  V30 24 C 0.0552817 3.72966 0.409332 0
M  V30 25 C 1.17211 4.44439 -0.306153 0
M  V30 26 C 1.49337 3.49027 -1.4739 0
M  V30 27 C 1.31719 2.16264 -0.754835 0 CFG=1
M  V30 28 C 2.44196 2.01811 0.278155 0
M  V30 29 O 2.06892 2.23542 1.44419 0
M  V30 30 N 3.70248 1.6819 -0.131265 0
M  V30 31 C 4.93837 1.35346 -0.522773 0 CFG=1
M  V30 32 C 5.11571 -0.217641 -0.497171 0
M  V30 33 C 6.5139 -0.494244 -0.951684 0
M  V30 34 C 6.839 -1.97508 -0.92717 0
M  V30 35 N 6.71035 -2.48007 0.390872 0
M  V30 36 C 7.59976 -2.12387 1.42352 0
M  V30 37 N 8.45261 -3.07621 2.05949 0
M  V30 38 N 7.66188 -0.874424 1.83005 0
M  V30 39 C 5.30388 1.78863 -1.92248 0
M  V30 40 O 6.60394 2.14112 -2.26966 0
M  V30 41 O 4.45219 1.85618 -2.83332 0
M  V30 42 H -7.05291 -1.17969 0.934039 0
M  V30 43 H -7.39711 -1.01614 3.24907 0
M  V30 44 H -6.31545 0.30877 3.41195 0
M  V30 45 H -5.69783 1.54944 1.42411 0
M  V30 46 H -8.42539 0.66274 0.556611 0
M  V30 47 H -7.77709 2.25319 -0.033217 0
M  V30 48 H -7.95114 2.01538 1.74927 0
M  V30 49 H -6.38225 1.7492 -1.14299 0
M  V30 50 H -6.06259 -0.0381096 -1.13734 0
M  V30 51 H -4.77407 1.11402 -0.648725 0
M  V30 52 H -5.72525 -2.88063 -0.077824 0
M  V30 53 H -4.50473 -1.91594 -1.01286 0
M  V30 54 H -4.46225 -4.72133 -0.494289 0
M  V30 55 H -2.99323 -3.78932 -0.949217 0
M  V30 56 H -3.96006 -4.42242 1.84478 0
M  V30 57 H -2.26905 -4.52056 1.10939 0
M  V30 58 H -3.00435 -2.46687 2.68711 0
M  V30 59 H -3.0435 -0.241695 0.0317492 0
M  V30 60 H -0.0440697 -0.49735 -0.252074 0
M  V30 61 H -0.39417 0.678518 -2.4237 0
M  V30 62 H -2.19746 0.544564 -2.12561 0
M  V30 63 H 0.641711 -1.63435 -3.48237 0
M  V30 64 H -0.94289 4.18059 0.170776 0
M  V30 65 H 0.238172 3.6865 1.48991 0
M  V30 66 H 0.790098 5.38996 -0.774305 0
M  V30 67 H 2.07953 4.58036 0.293239 0
M  V30 68 H 0.638438 3.5853 -2.16677 0
M  V30 69 H 2.47701 3.66961 -1.87996 0
M  V30 70 H 1.45758 1.30774 -1.40838 0
M  V30 71 H 4.09093 1.62023 1.1825 0
M  V30 72 H 5.79365 1.6848 0.107269 0
M  V30 73 H 4.34496 -0.658457 -1.1537 0
M  V30 74 H 4.99911 -0.493811 0.557924 0
M  V30 75 H 7.27695 0.1317 -0.483458 0
M  V30 76 H 6.55103 -0.227725 -2.06367 0
M  V30 77 H 6.19612 -2.46836 -1.6742 0
M  V30 78 H 7.90427 -2.04082 -1.28305 0
M  V30 79 H 5.93609 -3.13974 0.640332 0
M  V30 80 H 8.15709 -3.57336 2.94112 0
M  V30 81 H 9.38983 -3.32746 1.69312 0
M  V30 82 H 8.36872 -0.717543 2.61578 0
M  V30 83 H 7.02102 1.94097 -3.14857 0
M  V30 END ATOM
M  V30 BEGIN BOND
M  V30 1 1 1 2
M  V30 2 1 1 3
M  V30 3 1 3 4
M  V30 4 1 3 5
M  V30 5 1 1 6
M  V30 6 2 6 7
M  V30 7 1 6 8
M  V30 8 1 8 9
M  V30 9 1 9 10
M  V30 10 1 10 11
M  V30 11 1 11 12
M  V30 12 1 12 13
M  V30 13 2 13 14
M  V30 14 1 13 15
M  V30 15 1 15 16
M  V30 16 1 16 17
M  V30 17 1 17 18
M  V30 18 1 18 19
M  V30 19 2 18 20
M  V30 20 1 16 21
M  V30 21 2 21 22
M  V30 22 1 21 23
M  V30 23 1 23 24
M  V30 24 1 24 25
M  V30 25 1 25 26
M  V30 26 1 26 27
M  V30 27 1 27 28
M  V30 28 2 28 29
M  V30 29 1 28 30
M  V30 30 1 30 31
M  V30 31 1 31 32
M  V30 32 1 32 33
M  V30 33 1 33 34
M  V30 34 1 34 35
M  V30 35 1 35 36
M  V30 36 1 36 37
M  V30 37 2 36 38 CFG=2
M  V30 38 1 31 39
M  V30 39 1 39 40
M  V30 40 2 39 41
M  V30 41 1 12 8
M  V30 42 1 27 23
M  V30 43 1 1 42 CFG=3
M  V30 44 1 2 43
M  V30 45 1 2 44
M  V30 46 1 3 45
M  V30 47 1 4 46
M  V30 48 1 4 47
M  V30 49 1 4 48
M  V30 50 1 5 49
M  V30 51 1 5 50
M  V30 52 1 5 51
M  V30 53 1 9 52
M  V30 54 1 9 53
M  V30 55 1 10 54
M  V30 56 1 10 55
M  V30 57 1 11 56
M  V30 58 1 11 57
M  V30 59 1 12 58 CFG=1
M  V30 60 1 15 59
M  V30 61 1 16 60 CFG=3
M  V30 62 1 17 61
M  V30 63 1 17 62
M  V30 64 1 19 63
M  V30 65 1 24 64
M  V30 66 1 24 65
M  V30 67 1 25 66
M  V30 68 1 25 67
M  V30 69 1 26 68
M  V30 70 1 26 69
M  V30 71 1 27 70 CFG=3
M  V30 72 1 30 71
M  V30 73 1 31 72 CFG=1
M  V30 74 1 32 73
M  V30 75 1 32 74
M  V30 76 1 33 75
M  V30 77 1 33 76
M  V30 78 1 34 77
M  V30 79 1 34 78
M  V30 80 1 35 79
M  V30 81 1 37 80
M  V30 82 1 37 81
M  V30 83 1 38 82
M  V30 84 1 40 83
M  V30 END BOND
M  V30 END CTAB
M  END
