
     RDKit          3D

  0  0  0  0  0  0  0  0  0  0999 V3000
M  V30 BEGIN CTAB
M  V30 COUNTS 24 25 0 0 0
M  V30 BEGIN ATOM
M  V30 1 Cl 5.27046 1.79537 -1.27379 0
M  V30 2 C 3.87246 1.11733 -0.44981 0
M  V30 3 C 3.05311 1.91476 0.323616 0
M  V30 4 N 1.98571 1.42141 0.958511 0
M  V30 5 C 1.69412 0.122561 0.848898 0
M  V30 6 C 2.50361 -0.680591 0.0810481 0
M  V30 7 N 3.58892 -0.192111 -0.567751 0
M  V30 8 N 2.21863 -2.06723 -0.0541608 0
M  V30 9 S 0.298089 -0.635756 1.65332 0
M  V30 10 C -1.16196 -0.58263 0.628807 0
M  V30 11 C -1.46468 -1.59602 -0.259894 0
M  V30 12 C -2.61105 -1.53253 -1.04942 0
M  V30 13 N -3.45309 -0.489507 -0.971445 0
M  V30 14 C -3.17206 0.494207 -0.118174 0
M  V30 15 C -2.04433 0.475156 0.687233 0
M  V30 16 Cl -1.69964 1.77871 1.79746 0
M  V30 17 N -4.03888 1.60173 -0.0151489 0
M  V30 18 H 3.33605 2.96791 0.379574 0
M  V30 19 H 2.67194 -2.6399 -0.77441 0
M  V30 20 H 1.5336 -2.50866 0.593671 0
M  V30 21 H -0.802401 -2.44578 -0.340632 0
M  V30 22 H -2.87384 -2.31407 -1.75597 0
M  V30 23 H -3.86269 2.44561 -0.579032 0
M  V30 24 H -4.84207 1.55004 0.627905 0
M  V30 END ATOM
M  V30 BEGIN BOND
M  V30 1 1 1 2
M  V30 2 2 2 3
M  V30 3 1 3 4
M  V30 4 2 4 5
M  V30 5 1 5 6
M  V30 6 2 6 7
M  V30 7 1 6 8
M  V30 8 1 5 9
M  V30 9 1 9 10
M  V30 10 2 10 11
M  V30 11 1 11 12
M  V30 12 2 12 13
M  V30 13 1 13 14
M  V30 14 2 14 15
M  V30 15 1 15 16
M  V30 16 1 14 17
M  V30 17 1 7 2
M  V30 18 1 15 10
M  V30 19 1 3 18
M  V30 20 1 8 19
M  V30 21 1 8 20
M  V30 22 1 11 21
M  V30 23 1 12 22
M  V30 24 1 17 23
M  V30 25 1 17 24
M  V30 END BOND
M  V30 END CTAB
M  END
