
     RDKit          3D

  0  0  0  0  0  0  0  0  0  0999 V3000
M  V30 BEGIN CTAB
M  V30 COUNTS 21 21 0 0 0
M  V30 BEGIN ATOM
M  V30 1 Cl 4.17743 1.02943 -0.465444 0
M  V30 2 C 3.15579 -0.186798 0.305835 0
M  V30 3 C 2.08982 -0.611502 -0.63608 0
M  V30 4 O 2.41242 -1.2962 -1.64673 0
M  V30 5 C 0.717188 -0.231654 -0.354643 0
M  V30 6 C 0.296894 1.07342 -0.346202 0
M  V30 7 C -1.0383 1.31429 -0.0802404 0
M  V30 8 N -1.48916 2.66003 -0.0816544 0
M  V30 9 C -1.94303 0.301943 0.178723 0
M  V30 10 C -1.52323 -1.02587 0.174999 0
M  V30 11 C -0.207329 -1.26795 -0.0931039 0
M  V30 12 F 0.251726 -2.56391 -0.117123 0
M  V30 13 N -2.44478 -2.06534 0.478965 0
M  V30 14 H 3.77169 -1.07172 0.631215 0
M  V30 15 H 2.70025 0.287575 1.21864 0
M  V30 16 H 1.00749 1.89393 -0.547014 0
M  V30 17 H -2.39469 2.81266 -0.598551 0
M  V30 18 H -1.04321 3.46233 0.361483 0
M  V30 19 H -2.98793 0.479209 0.386627 0
M  V30 20 H -3.46991 -2.02506 0.377013 0
M  V30 21 H -2.03913 -2.9688 0.85328 0
M  V30 END ATOM
M  V30 BEGIN BOND
M  V30 1 1 1 2
M  V30 2 1 2 3
M  V30 3 2 3 4
M  V30 4 1 3 5
M  V30 5 2 5 6
M  V30 6 1 6 7
M  V30 7 1 7 8
M  V30 8 2 7 9
M  V30 9 1 9 10
M  V30 10 2 10 11
M  V30 11 1 11 12
M  V30 12 1 10 13
M  V30 13 1 11 5
M  V30 14 1 2 14
M  V30 15 1 2 15
M  V30 16 1 6 16
M  V30 17 1 8 17
M  V30 18 1 8 18
M  V30 19 1 9 19
M  V30 20 1 13 20
M  V30 21 1 13 21
M  V30 END BOND
M  V30 END CTAB
M  END
