
     RDKit          3D

  0  0  0  0  0  0  0  0  0  0999 V3000
M  V30 BEGIN CTAB
M  V30 COUNTS 16 16 0 0 0
M  V30 BEGIN ATOM
M  V30 1 N 3.33087 -0.0443822 -0.380592 0
M  V30 2 C 1.91891 -0.196121 -0.285173 0
M  V30 3 C 1.14582 0.645063 0.494308 0
M  V30 4 C -0.22096 0.484761 0.57611 0
M  V30 5 C -0.824892 -0.524995 -0.126512 0
M  V30 6 N -0.0568631 -1.32592 -0.873542 0
M  V30 7 N 1.25194 -1.16153 -0.943309 0
M  V30 8 C -2.26698 -0.672032 -0.0228075 0
M  V30 9 S -2.979 -2.12857 -0.130423 0
M  V30 10 N -3.06614 0.474734 0.175611 0
M  V30 11 H 4.0004 -0.843586 -0.295245 0
M  V30 12 H 3.70178 0.911721 -0.543016 0
M  V30 13 H 1.67365 1.42903 1.03088 0
M  V30 14 H -0.813168 1.15572 1.19412 0
M  V30 15 H -2.97378 1.3606 -0.34687 0
M  V30 16 H -3.82158 0.4355 0.914144 0
M  V30 END ATOM
M  V30 BEGIN BOND
M  V30 1 1 1 2
M  V30 2 2 2 3
M  V30 3 1 3 4
M  V30 4 2 4 5
M  V30 5 1 5 6
M  V30 6 2 6 7
M  V30 7 1 5 8
M  V30 8 2 8 9
M  V30 9 1 8 10
M  V30 10 1 7 2
M  V30 11 1 1 11
M  V30 12 1 1 12
M  V30 13 1 3 13
M  V30 14 1 4 14
M  V30 15 1 10 15
M  V30 16 1 10 16
M  V30 END BOND
M  V30 END CTAB
M  END
