
     RDKit          3D

  0  0  0  0  0  0  0  0  0  0999 V3000
M  V30 BEGIN CTAB
M  V30 COUNTS 44 46 0 0 0
M  V30 BEGIN ATOM
M  V30 1 C 2.0069 1.91832 -1.41667 0
M  V30 2 O 1.5417 0.624683 -1.26313 0
M  V30 3 C 1.73993 -0.267382 -0.257791 0
M  V30 4 C 2.84414 -1.12306 -0.323426 0
M  V30 5 O 3.68139 -1.02244 -1.39814 0
M  V30 6 C 4.82141 -1.78704 -1.62845 0
M  V30 7 C 3.097 -2.04988 0.661096 0
M  V30 8 C 2.22741 -2.12096 1.73155 0
M  V30 9 C 1.14084 -1.27842 1.79594 0
M  V30 10 C 0.872026 -0.330353 0.800774 0
M  V30 11 C -0.288379 0.528851 0.955879 0
M  V30 12 C -0.212335 1.71796 1.64761 0
M  V30 13 C 0.999182 2.16505 2.2828 0
M  V30 14 N 1.98153 2.50633 2.78587 0
M  V30 15 C -1.33395 2.53394 1.7699 0
M  V30 16 N -1.23891 3.7528 2.48331 0
M  V30 17 N -2.48402 2.12342 1.19443 0
M  V30 18 C -2.62076 0.984945 0.513666 0
M  V30 19 C -1.51552 0.170194 0.386791 0
M  V30 20 C -1.66508 -1.09048 -0.366622 0
M  V30 21 C -2.53274 -0.761268 -1.58798 0
M  V30 22 N -2.64945 -2.00667 -2.34194 0
M  V30 23 C -3.90812 -0.419824 -1.0942 0
M  V30 24 C -3.94908 0.655213 -0.0693559 0
M  V30 25 Cl 2.53883 -3.30571 3.00255 0
M  V30 26 H 2.29991 2.07845 -2.48655 0
M  V30 27 H 1.25087 2.69908 -1.15 0
M  V30 28 H 2.90888 2.16212 -0.824104 0
M  V30 29 H 5.55273 -1.55735 -0.799187 0
M  V30 30 H 4.65317 -2.86028 -1.7379 0
M  V30 31 H 5.31319 -1.39276 -2.56172 0
M  V30 32 H 3.95716 -2.71056 0.601957 0
M  V30 33 H 0.494175 -1.38098 2.65992 0
M  V30 34 H -1.2698 3.74676 3.51812 0
M  V30 35 H -1.13942 4.64462 1.98289 0
M  V30 36 H -2.25449 -1.83289 0.223989 0
M  V30 37 H -0.677975 -1.47337 -0.674666 0
M  V30 38 H -2.07525 0.0436966 -2.19126 0
M  V30 39 H -2.70478 -2.77283 -1.63392 0
M  V30 40 H -3.50492 -1.97458 -2.94897 0
M  V30 41 H -4.31222 -1.35847 -0.613535 0
M  V30 42 H -4.59277 -0.200975 -1.93606 0
M  V30 43 H -4.62844 0.406418 0.794968 0
M  V30 44 H -4.36397 1.61567 -0.488431 0
M  V30 END ATOM
M  V30 BEGIN BOND
M  V30 1 1 1 2
M  V30 2 1 2 3
M  V30 3 2 3 4
M  V30 4 1 4 5
M  V30 5 1 5 6
M  V30 6 1 4 7
M  V30 7 2 7 8
M  V30 8 1 8 9
M  V30 9 2 9 10
M  V30 10 1 10 11
M  V30 11 2 11 12
M  V30 12 1 12 13
M  V30 13 3 13 14
M  V30 14 1 12 15
M  V30 15 1 15 16
M  V30 16 2 15 17
M  V30 17 1 17 18
M  V30 18 2 18 19
M  V30 19 1 19 20
M  V30 20 1 20 21
M  V30 21 1 21 22
M  V30 22 1 21 23
M  V30 23 1 23 24
M  V30 24 1 8 25
M  V30 25 1 10 3
M  V30 26 1 19 11
M  V30 27 1 24 18
M  V30 28 1 1 26
M  V30 29 1 1 27
M  V30 30 1 1 28
M  V30 31 1 6 29
M  V30 32 1 6 30
M  V30 33 1 6 31
M  V30 34 1 7 32
M  V30 35 1 9 33
M  V30 36 1 16 34
M  V30 37 1 16 35
M  V30 38 1 20 36
M  V30 39 1 20 37
M  V30 40 1 21 38
M  V30 41 1 22 39
M  V30 42 1 22 40
M  V30 43 1 23 41
M  V30 44 1 23 42
M  V30 45 1 24 43
M  V30 46 1 24 44
M  V30 END BOND
M  V30 END CTAB
M  END
