
     RDKit          3D

  0  0  0  0  0  0  0  0  0  0999 V3000
M  V30 BEGIN CTAB
M  V30 COUNTS 26 26 0 0 0
M  V30 BEGIN ATOM
M  V30 1 C 2.781 -0.0454298 -1.01725 0
M  V30 2 C 2.32237 -1.18969 -0.133237 0
M  V30 3 C 1.03848 -0.774337 0.53891 0
M  V30 4 O 1.16562 0.343247 1.31871 0
M  V30 5 C -0.0454857 0.993198 1.37791 0
M  V30 6 C -0.995996 0.306272 0.44364 0
M  V30 7 C -0.0383793 -0.422313 -0.465839 0
M  V30 8 N -1.80868 -0.604089 1.20416 0
M  V30 9 C -1.89693 1.25035 -0.294159 0
M  V30 10 N -2.77438 0.500224 -1.16698 0
M  V30 11 H 2.20216 -0.0977389 -1.94589 0
M  V30 12 H 3.8723 -0.099393 -1.21917 0
M  V30 13 H 2.56067 0.892544 -0.478386 0
M  V30 14 H 3.0842 -1.3912 0.646443 0
M  V30 15 H 2.14484 -2.12072 -0.706691 0
M  V30 16 H 0.64551 -1.62821 1.14002 0
M  V30 17 H -0.445968 1.0388 2.42465 0
M  V30 18 H 0.107125 2.02806 0.997848 0
M  V30 19 H -0.477332 -1.32915 -0.91792 0
M  V30 20 H 0.335227 0.287349 -1.2196 0
M  V30 21 H -1.52616 -0.656594 2.21 0
M  V30 22 H -1.89774 -1.54326 0.762748 0
M  V30 23 H -1.24739 1.87368 -0.964823 0
M  V30 24 H -2.4635 1.88594 0.412854 0
M  V30 25 H -2.94787 -0.46984 -0.848716 0
M  V30 26 H -3.69368 0.972303 -1.23658 0
M  V30 END ATOM
M  V30 BEGIN BOND
M  V30 1 1 1 2
M  V30 2 1 2 3
M  V30 3 1 3 4
M  V30 4 1 4 5
M  V30 5 1 5 6
M  V30 6 1 6 7
M  V30 7 1 6 8
M  V30 8 1 6 9
M  V30 9 1 9 10
M  V30 10 1 7 3
M  V30 11 1 1 11
M  V30 12 1 1 12
M  V30 13 1 1 13
M  V30 14 1 2 14
M  V30 15 1 2 15
M  V30 16 1 3 16
M  V30 17 1 5 17
M  V30 18 1 5 18
M  V30 19 1 7 19
M  V30 20 1 7 20
M  V30 21 1 8 21
M  V30 22 1 8 22
M  V30 23 1 9 23
M  V30 24 1 9 24
M  V30 25 1 10 25
M  V30 26 1 10 26
M  V30 END BOND
M  V30 END CTAB
M  END
