
     RDKit          3D

  0  0  0  0  0  0  0  0  0  0999 V3000
M  V30 BEGIN CTAB
M  V30 COUNTS 52 55 0 0 0
M  V30 BEGIN ATOM
M  V30 1 N 6.86875 1.44738 -0.90503 0
M  V30 2 C 5.60238 1.855 -0.347972 0
M  V30 3 C 5.00679 0.796508 0.551974 0
M  V30 4 C 4.75259 -0.502265 -0.15802 0
M  V30 5 C 3.61938 -1.09501 0.690858 0
M  V30 6 N 2.78928 0.0628074 0.913842 0
M  V30 7 C 3.65007 1.20664 1.01019 0
M  V30 8 C 1.34663 0.118444 1.02944 0
M  V30 9 O 0.905873 1.27141 1.21924 0
M  V30 10 N 0.579454 -1.06582 0.925812 0
M  V30 11 C -0.791174 -1.32822 0.968412 0
M  V30 12 C -1.7453 -0.909659 -0.0777635 0
M  V30 13 N -1.30958 -1.53047 -1.32382 0
M  V30 14 C -1.95572 0.52132 -0.246314 0
M  V30 15 C -2.87721 0.79458 -1.46576 0
M  V30 16 C -4.16163 0.0645872 -1.33822 0
M  V30 17 C -3.96881 -1.40531 -1.01973 0
M  V30 18 C -3.113 -1.57714 0.196192 0
M  V30 19 C -3.80515 -0.952654 1.36784 0
M  V30 20 C -4.06034 0.507382 1.05433 0
M  V30 21 C -2.70187 1.16846 0.909761 0
M  V30 22 C -4.9212 0.671047 -0.176802 0
M  V30 23 H 6.87047 0.471443 -1.24576 0
M  V30 24 H 7.10964 2.12719 -1.66378 0
M  V30 25 H 5.73027 2.76295 0.265063 0
M  V30 26 H 4.90236 2.06398 -1.16733 0
M  V30 27 H 5.66729 0.587763 1.41992 0
M  V30 28 H 5.59936 -1.21489 -0.0629564 0
M  V30 29 H 4.40009 -0.379719 -1.19193 0
M  V30 30 H 3.13933 -1.93084 0.185359 0
M  V30 31 H 4.09429 -1.36645 1.65592 0
M  V30 32 H 3.68318 1.56804 2.05842 0
M  V30 33 H 3.30608 2.06286 0.395816 0
M  V30 34 H 1.2118 -1.96049 0.778423 0
M  V30 35 H -1.14007 -0.945841 2.00105 0
M  V30 36 H -0.919135 -2.45918 1.15607 0
M  V30 37 H -1.82681 -1.23794 -2.15424 0
M  V30 38 H -0.301038 -1.40398 -1.49402 0
M  V30 39 H -1.05954 1.13443 -0.439163 0
M  V30 40 H -2.3457 0.707326 -2.40873 0
M  V30 41 H -3.11419 1.89562 -1.35763 0
M  V30 42 H -4.70627 0.134453 -2.28443 0
M  V30 43 H -3.68716 -2.01184 -1.88125 0
M  V30 44 H -4.99884 -1.7716 -0.726365 0
M  V30 45 H -2.88954 -2.64563 0.353756 0
M  V30 46 H -3.18313 -0.966082 2.29266 0
M  V30 47 H -4.74743 -1.50282 1.52201 0
M  V30 48 H -4.5986 0.971561 1.89905 0
M  V30 49 H -2.79522 2.25414 0.663608 0
M  V30 50 H -2.17995 1.03343 1.86786 0
M  V30 51 H -5.85826 0.146526 0.00152056 0
M  V30 52 H -5.07349 1.75657 -0.321492 0
M  V30 END ATOM
M  V30 BEGIN BOND
M  V30 1 1 1 2
M  V30 2 1 2 3
M  V30 3 1 3 4
M  V30 4 1 4 5
M  V30 5 1 5 6
M  V30 6 1 6 7
M  V30 7 1 6 8
M  V30 8 2 8 9
M  V30 9 1 8 10
M  V30 10 1 10 11
M  V30 11 1 11 12
M  V30 12 1 12 13
M  V30 13 1 12 14
M  V30 14 1 14 15
M  V30 15 1 15 16
M  V30 16 1 16 17
M  V30 17 1 17 18
M  V30 18 1 18 19
M  V30 19 1 19 20
M  V30 20 1 20 21
M  V30 21 1 20 22
M  V30 22 1 7 3
M  V30 23 1 18 12
M  V30 24 1 21 14
M  V30 25 1 22 16
M  V30 26 1 1 23
M  V30 27 1 1 24
M  V30 28 1 2 25
M  V30 29 1 2 26
M  V30 30 1 3 27
M  V30 31 1 4 28
M  V30 32 1 4 29
M  V30 33 1 5 30
M  V30 34 1 5 31
M  V30 35 1 7 32
M  V30 36 1 7 33
M  V30 37 1 10 34
M  V30 38 1 11 35
M  V30 39 1 11 36
M  V30 40 1 13 37
M  V30 41 1 13 38
M  V30 42 1 14 39
M  V30 43 1 15 40
M  V30 44 1 15 41
M  V30 45 1 16 42
M  V30 46 1 17 43
M  V30 47 1 17 44
M  V30 48 1 18 45
M  V30 49 1 19 46
M  V30 50 1 19 47
M  V30 51 1 20 48
M  V30 52 1 21 49
M  V30 53 1 21 50
M  V30 54 1 22 51
M  V30 55 1 22 52
M  V30 END BOND
M  V30 END CTAB
M  END
