
     RDKit          3D

  0  0  0  0  0  0  0  0  0  0999 V3000
M  V30 BEGIN CTAB
M  V30 COUNTS 21 22 0 0 0
M  V30 BEGIN ATOM
M  V30 1 Cl -5.77333 0.767408 -0.00852686 0
M  V30 2 C -4.07218 0.266349 -4.02799e-06 0
M  V30 3 C -3.57776 -1.01272 0.0230984 0
M  V30 4 C -2.23699 -1.14566 0.0250485 0
M  V30 5 C -1.49046 -0.00904509 0.00410294 0
M  V30 6 S -2.66248 1.22471 -0.0179359 0
M  V30 7 C -0.0390315 0.155166 0.000618285 0
M  V30 8 C 0.850109 -0.894456 0.0193538 0
M  V30 9 C 2.21747 -0.679255 0.0149868 0
M  V30 10 N 3.1137 -1.78485 0.0347347 0
M  V30 11 N 2.66822 0.582475 -0.0080502 0
M  V30 12 C 1.81177 1.61576 -0.0264983 0
M  V30 13 N 0.497318 1.40043 -0.022147 0
M  V30 14 N 2.35362 2.92499 -0.0504041 0
M  V30 15 H -4.29523 -1.87113 0.0389618 0
M  V30 16 H -1.74582 -2.13984 0.042957 0
M  V30 17 H 0.4318 -1.89857 0.0377077 0
M  V30 18 H 3.36489 -2.21843 0.932039 0
M  V30 19 H 3.47997 -2.10863 -0.880245 0
M  V30 20 H 2.40985 3.40919 -0.97797 0
M  V30 21 H 2.69458 3.4161 0.818172 0
M  V30 END ATOM
M  V30 BEGIN BOND
M  V30 1 1 1 2
M  V30 2 2 2 3
M  V30 3 1 3 4
M  V30 4 2 4 5
M  V30 5 1 5 6
M  V30 6 1 5 7
M  V30 7 2 7 8
M  V30 8 1 8 9
M  V30 9 1 9 10
M  V30 10 2 9 11
M  V30 11 1 11 12
M  V30 12 2 12 13
M  V30 13 1 12 14
M  V30 14 1 6 2
M  V30 15 1 13 7
M  V30 16 1 3 15
M  V30 17 1 4 16
M  V30 18 1 8 17
M  V30 19 1 10 18
M  V30 20 1 10 19
M  V30 21 1 14 20
M  V30 22 1 14 21
M  V30 END BOND
M  V30 END CTAB
M  END
