
     RDKit          3D

  0  0  0  0  0  0  0  0  0  0999 V3000
M  V30 BEGIN CTAB
M  V30 COUNTS 35 35 0 0 0
M  V30 BEGIN ATOM
M  V30 1 C -2.80252 1.79856 0.261612 0
M  V30 2 C -4.03829 0.944891 0.298458 0
M  V30 3 C -3.8592 -0.32019 -0.553498 0 CFG=1
M  V30 4 C -2.72856 -1.13209 -0.0488571 0
M  V30 5 O -2.94341 -2.09737 0.733196 0
M  V30 6 N -1.37524 -0.836597 -0.445852 0
M  V30 7 C -0.324753 -1.66763 0.0864071 0
M  V30 8 C 0.95566 -0.9296 0.151359 0
M  V30 9 C 2.11364 -1.6508 0.412864 0
M  V30 10 C 3.32203 -1.03015 0.464602 0
M  V30 11 C 3.4567 0.338747 0.260373 0
M  V30 12 C 2.31259 1.04779 0.00304545 0
M  V30 13 C 1.06603 0.416165 -0.050812 0
M  V30 14 S 5.01066 1.13477 0.327999 0
M  V30 15 O 5.81517 0.599591 1.4737 0
M  V30 16 O 4.78753 2.62816 0.423703 0
M  V30 17 N 5.80914 0.890703 -1.20385 0
M  V30 18 N -5.08314 -1.11131 -0.327622 0
M  V30 19 H -1.95788 1.32461 0.807034 0
M  V30 20 H -2.49341 2.0139 -0.766404 0
M  V30 21 H -2.96954 2.78039 0.770064 0
M  V30 22 H -4.23569 0.646332 1.3518 0
M  V30 23 H -4.90944 1.51729 -0.0493915 0
M  V30 24 H -3.71295 -0.0892164 -1.60518 0
M  V30 25 H -1.24761 -0.0409978 -1.10216 0
M  V30 26 H -0.54536 -1.98955 1.13824 0
M  V30 27 H -0.218186 -2.59959 -0.509333 0
M  V30 28 H 2.09013 -2.73358 0.584648 0
M  V30 29 H 4.2299 -1.58553 0.671336 0
M  V30 30 H 2.3264 2.12226 -0.164551 0
M  V30 31 H 0.178034 0.992736 -0.243203 0
M  V30 32 H 6.7158 1.42584 -1.22614 0
M  V30 33 H 6.0542 -0.105603 -1.36984 0
M  V30 34 H -5.89942 -0.685707 -0.834641 0
M  V30 35 H -4.89904 -2.01723 -0.825882 0
M  V30 END ATOM
M  V30 BEGIN BOND
M  V30 1 1 1 2
M  V30 2 1 2 3
M  V30 3 1 3 4
M  V30 4 2 4 5
M  V30 5 1 4 6
M  V30 6 1 6 7
M  V30 7 1 7 8
M  V30 8 2 8 9
M  V30 9 1 9 10
M  V30 10 2 10 11
M  V30 11 1 11 12
M  V30 12 2 12 13
M  V30 13 1 11 14
M  V30 14 2 14 15
M  V30 15 2 14 16
M  V30 16 1 14 17
M  V30 17 1 3 18
M  V30 18 1 13 8
M  V30 19 1 1 19
M  V30 20 1 1 20
M  V30 21 1 1 21
M  V30 22 1 2 22
M  V30 23 1 2 23
M  V30 24 1 3 24 CFG=3
M  V30 25 1 6 25
M  V30 26 1 7 26
M  V30 27 1 7 27
M  V30 28 1 9 28
M  V30 29 1 10 29
M  V30 30 1 12 30
M  V30 31 1 13 31
M  V30 32 1 17 32
M  V30 33 1 17 33
M  V30 34 1 18 34
M  V30 35 1 18 35
M  V30 END BOND
M  V30 END CTAB
M  END
