
     RDKit          3D

  0  0  0  0  0  0  0  0  0  0999 V3000
M  V30 BEGIN CTAB
M  V30 COUNTS 28 30 0 0 0
M  V30 BEGIN ATOM
M  V30 1 N -4.0049 -1.44892 -0.323823 0
M  V30 2 C -2.7942 -0.716964 -0.242082 0
M  V30 3 C -1.60405 -1.38811 -0.105604 0
M  V30 4 C -0.409677 -0.698486 -0.0236571 0
M  V30 5 C 0.785399 -1.3954 0.114319 0
M  V30 6 C 1.96696 -0.670666 0.193681 0
M  V30 7 C 3.18962 -1.32935 0.332647 0
M  V30 8 C 4.36478 -0.61139 0.411684 0
M  V30 9 C 4.35197 0.764805 0.354965 0
M  V30 10 C 3.15915 1.42186 0.21881 0
M  V30 11 C 1.97885 0.706431 0.139197 0
M  V30 12 C 0.752734 1.34891 0.000561968 0
M  V30 13 C -0.439214 0.677124 -0.0818879 0
M  V30 14 C -1.65696 1.33749 -0.220465 0
M  V30 15 C -2.85054 0.66111 -0.302873 0
M  V30 16 N -4.07799 1.34038 -0.443106 0
M  V30 17 H -4.43483 -1.79896 0.558484 0
M  V30 18 H -4.436 -1.6201 -1.25741 0
M  V30 19 H -1.56047 -2.48579 -0.0572891 0
M  V30 20 H 0.770625 -2.47537 0.156522 0
M  V30 21 H 3.18492 -2.42593 0.37648 0
M  V30 22 H 5.32261 -1.12041 0.52026 0
M  V30 23 H 5.2821 1.35377 0.416687 0
M  V30 24 H 3.12794 2.51084 0.171988 0
M  V30 25 H 0.766038 2.42573 -0.041677 0
M  V30 26 H -1.64491 2.41802 -0.262967 0
M  V30 27 H -4.10772 2.31502 -0.814612 0
M  V30 28 H -4.98225 0.904334 -0.186648 0
M  V30 END ATOM
M  V30 BEGIN BOND
M  V30 1 1 1 2
M  V30 2 2 2 3
M  V30 3 1 3 4
M  V30 4 2 4 5
M  V30 5 1 5 6
M  V30 6 2 6 7
M  V30 7 1 7 8
M  V30 8 2 8 9
M  V30 9 1 9 10
M  V30 10 2 10 11
M  V30 11 1 11 12
M  V30 12 2 12 13
M  V30 13 1 13 14
M  V30 14 2 14 15
M  V30 15 1 15 16
M  V30 16 1 15 2
M  V30 17 1 13 4
M  V30 18 1 11 6
M  V30 19 1 1 17
M  V30 20 1 1 18
M  V30 21 1 3 19
M  V30 22 1 5 20
M  V30 23 1 7 21
M  V30 24 1 8 22
M  V30 25 1 9 23
M  V30 26 1 10 24
M  V30 27 1 12 25
M  V30 28 1 14 26
M  V30 29 1 16 27
M  V30 30 1 16 28
M  V30 END BOND
M  V30 END CTAB
M  END
