
     RDKit          3D

  0  0  0  0  0  0  0  0  0  0999 V3000
M  V30 BEGIN CTAB
M  V30 COUNTS 27 27 0 0 0
M  V30 BEGIN ATOM
M  V30 1 C -2.95283 -1.11735 -1.17758 0
M  V30 2 C -1.84357 -0.889362 -0.195169 0
M  V30 3 C -1.89384 0.471883 0.434118 0 CFG=2
M  V30 4 C -0.749226 0.628897 1.41088 0
M  V30 5 C 0.567803 0.484039 0.778581 0
M  V30 6 N 1.27257 -0.637041 0.625876 0
M  V30 7 N 2.39674 -0.318338 0.00752535 0
M  V30 8 C 2.40707 0.995164 -0.231292 0
M  V30 9 N 1.27638 1.49861 0.244084 0
M  V30 10 N 3.45544 1.70516 -0.881445 0
M  V30 11 C 3.41718 -1.30778 -0.32623 0
M  V30 12 N -3.1061 0.761566 1.10475 0
M  V30 13 H -2.76804 -2.06232 -1.70123 0
M  V30 14 H -3.0185 -0.311305 -1.91729 0
M  V30 15 H -3.89647 -1.23159 -0.615108 0
M  V30 16 H -0.887859 -1.04662 -0.735865 0
M  V30 17 H -1.91158 -1.6829 0.576632 0
M  V30 18 H -1.74794 1.22519 -0.387943 0
M  V30 19 H -0.853959 -0.154664 2.20221 0
M  V30 20 H -0.794526 1.59624 1.95166 0
M  V30 21 H 4.13953 1.19416 -1.47296 0
M  V30 22 H 3.51745 2.73167 -0.750892 0
M  V30 23 H 3.63803 -1.93902 0.570828 0
M  V30 24 H 3.02593 -1.96304 -1.12968 0
M  V30 25 H 4.3288 -0.779557 -0.68544 0
M  V30 26 H -3.04959 1.46107 1.84192 0
M  V30 27 H -3.96887 0.687241 0.575053 0
M  V30 END ATOM
M  V30 BEGIN BOND
M  V30 1 1 1 2
M  V30 2 1 2 3
M  V30 3 1 3 4
M  V30 4 1 4 5
M  V30 5 2 5 6
M  V30 6 1 6 7
M  V30 7 1 7 8
M  V30 8 2 8 9
M  V30 9 1 8 10
M  V30 10 1 7 11
M  V30 11 1 3 12
M  V30 12 1 9 5
M  V30 13 1 1 13
M  V30 14 1 1 14
M  V30 15 1 1 15
M  V30 16 1 2 16
M  V30 17 1 2 17
M  V30 18 1 3 18 CFG=3
M  V30 19 1 4 19
M  V30 20 1 4 20
M  V30 21 1 10 21
M  V30 22 1 10 22
M  V30 23 1 11 23
M  V30 24 1 11 24
M  V30 25 1 11 25
M  V30 26 1 12 26
M  V30 27 1 12 27
M  V30 END BOND
M  V30 END CTAB
M  END
