
     RDKit          3D

  0  0  0  0  0  0  0  0  0  0999 V3000
M  V30 BEGIN CTAB
M  V30 COUNTS 42 43 0 0 0
M  V30 BEGIN ATOM
M  V30 1 N -2.6394 -0.768795 2.21624 0
M  V30 2 C -3.75731 -0.136918 1.55315 0
M  V30 3 C -3.32495 1.0904 0.756508 0
M  V30 4 C -4.59537 1.6436 0.120878 0
M  V30 5 C -4.01409 2.51547 -0.973119 0
M  V30 6 C -2.99733 1.55958 -1.59802 0
M  V30 7 C -2.52101 0.710152 -0.439818 0
M  V30 8 N -1.10091 0.788986 -0.240147 0
M  V30 9 C -0.196623 -0.283371 -0.358131 0
M  V30 10 O -0.661156 -1.4031 -0.662352 0
M  V30 11 C 1.22943 -0.0740317 -0.129157 0
M  V30 12 C 2.07279 -1.30209 -0.288735 0
M  V30 13 C 3.50931 -1.04708 -0.0484986 0
M  V30 14 C 4.03977 -1.35193 1.18482 0
M  V30 15 C 5.38285 -1.13527 1.47204 0
M  V30 16 C 6.21676 -0.602826 0.509011 0
M  V30 17 C 5.70262 -0.291608 -0.731512 0
M  V30 18 C 4.35634 -0.518632 -0.991185 0
M  V30 19 N 1.94985 -1.92483 -1.58009 0
M  V30 20 H -2.80146 -0.989891 3.20301 0
M  V30 21 H -2.44132 -1.66539 1.69006 0
M  V30 22 H -4.23882 -0.828324 0.807203 0
M  V30 23 H -4.52505 0.10086 2.28822 0
M  V30 24 H -2.83616 1.83621 1.41841 0
M  V30 25 H -5.11675 0.789631 -0.358022 0
M  V30 26 H -5.21333 2.19373 0.836794 0
M  V30 27 H -3.43127 3.30825 -0.478296 0
M  V30 28 H -4.75674 2.86782 -1.69189 0
M  V30 29 H -2.16508 2.12143 -2.05586 0
M  V30 30 H -3.459 0.961559 -2.40504 0
M  V30 31 H -2.76584 -0.342024 -0.700825 0
M  V30 32 H -0.729788 1.72992 0.0130382 0
M  V30 33 H 1.35771 0.36006 0.882895 0
M  V30 34 H 1.60061 0.722345 -0.838841 0
M  V30 35 H 1.73535 -2.05086 0.455448 0
M  V30 36 H 3.42044 -1.7763 1.98308 0
M  V30 37 H 5.78806 -1.37766 2.4414 0
M  V30 38 H 7.27702 -0.422873 0.710217 0
M  V30 39 H 6.33524 0.129413 -1.51108 0
M  V30 40 H 3.99233 -0.267838 -1.95677 0
M  V30 41 H 2.88399 -2.03438 -2.06819 0
M  V30 42 H 1.43828 -2.83341 -1.55089 0
M  V30 END ATOM
M  V30 BEGIN BOND
M  V30 1 1 1 2
M  V30 2 1 2 3
M  V30 3 1 3 4
M  V30 4 1 4 5
M  V30 5 1 5 6
M  V30 6 1 6 7
M  V30 7 1 7 8
M  V30 8 1 8 9
M  V30 9 2 9 10
M  V30 10 1 9 11
M  V30 11 1 11 12
M  V30 12 1 12 13
M  V30 13 2 13 14
M  V30 14 1 14 15
M  V30 15 2 15 16
M  V30 16 1 16 17
M  V30 17 2 17 18
M  V30 18 1 12 19
M  V30 19 1 7 3
M  V30 20 1 18 13
M  V30 21 1 1 20
M  V30 22 1 1 21
M  V30 23 1 2 22
M  V30 24 1 2 23
M  V30 25 1 3 24
M  V30 26 1 4 25
M  V30 27 1 4 26
M  V30 28 1 5 27
M  V30 29 1 5 28
M  V30 30 1 6 29
M  V30 31 1 6 30
M  V30 32 1 7 31
M  V30 33 1 8 32
M  V30 34 1 11 33
M  V30 35 1 11 34
M  V30 36 1 12 35
M  V30 37 1 14 36
M  V30 38 1 15 37
M  V30 39 1 16 38
M  V30 40 1 17 39
M  V30 41 1 18 40
M  V30 42 1 19 41
M  V30 43 1 19 42
M  V30 END BOND
M  V30 END CTAB
M  END
