
     RDKit          3D

  0  0  0  0  0  0  0  0  0  0999 V3000
M  V30 BEGIN CTAB
M  V30 COUNTS 38 38 0 0 0
M  V30 BEGIN ATOM
M  V30 1 C -1.53687 -2.8568 -0.285391 0
M  V30 2 C -2.45471 -1.94609 -1.01534 0
M  V30 3 C -1.95449 -0.552356 -1.24377 0
M  V30 4 N -1.61917 0.201597 -0.0870457 0
M  V30 5 C -2.79552 0.894039 0.517789 0
M  V30 6 C -3.05826 2.22415 -0.0689009 0
M  V30 7 C -2.00408 3.2529 0.0195729 0
M  V30 8 C -0.388451 0.373297 0.513894 0
M  V30 9 O -0.508327 1.11401 1.61322 0
M  V30 10 C 0.957783 -0.0164061 0.281512 0
M  V30 11 C 1.95591 0.363832 1.20075 0
M  V30 12 C 3.28278 0.05669 1.04656 0
M  V30 13 N 4.25105 0.47185 2.01652 0
M  V30 14 C 3.71384 -0.655393 -0.0403492 0
M  V30 15 N 5.08393 -0.994634 -0.238367 0
M  V30 16 C 2.78919 -1.04986 -0.962619 0
M  V30 17 C 1.44206 -0.728171 -0.788903 0
M  V30 18 H -0.70596 -3.24677 -0.909728 0
M  V30 19 H -2.14426 -3.7098 0.117337 0
M  V30 20 H -1.11842 -2.35903 0.626483 0
M  V30 21 H -2.58034 -2.38534 -2.0529 0
M  V30 22 H -3.44181 -1.97213 -0.503706 0
M  V30 23 H -1.24205 -0.569494 -2.07895 0
M  V30 24 H -2.85018 0.0480359 -1.7133 0
M  V30 25 H -2.61093 1.00801 1.60224 0
M  V30 26 H -3.67119 0.250432 0.349066 0
M  V30 27 H -3.95723 2.63347 0.483638 0
M  V30 28 H -3.41289 2.18005 -1.12642 0
M  V30 29 H -1.78273 3.64126 1.02658 0
M  V30 30 H -1.11116 2.92923 -0.554121 0
M  V30 31 H -2.37481 4.15567 -0.55342 0
M  V30 32 H 1.67266 0.935421 2.09318 0
M  V30 33 H 4.02418 1.26857 2.6381 0
M  V30 34 H 5.14496 -0.00669557 2.09371 0
M  V30 35 H 5.84313 -0.299252 -0.131248 0
M  V30 36 H 5.37231 -1.96926 -0.501755 0
M  V30 37 H 3.06346 -1.62357 -1.85828 0
M  V30 38 H 0.726595 -1.06148 -1.52563 0
M  V30 END ATOM
M  V30 BEGIN BOND
M  V30 1 1 1 2
M  V30 2 1 2 3
M  V30 3 1 3 4
M  V30 4 1 4 5
M  V30 5 1 5 6
M  V30 6 1 6 7
M  V30 7 1 4 8
M  V30 8 2 8 9
M  V30 9 1 8 10
M  V30 10 2 10 11
M  V30 11 1 11 12
M  V30 12 1 12 13
M  V30 13 2 12 14
M  V30 14 1 14 15
M  V30 15 1 14 16
M  V30 16 2 16 17
M  V30 17 1 17 10
M  V30 18 1 1 18
M  V30 19 1 1 19
M  V30 20 1 1 20
M  V30 21 1 2 21
M  V30 22 1 2 22
M  V30 23 1 3 23
M  V30 24 1 3 24
M  V30 25 1 5 25
M  V30 26 1 5 26
M  V30 27 1 6 27
M  V30 28 1 6 28
M  V30 29 1 7 29
M  V30 30 1 7 30
M  V30 31 1 7 31
M  V30 32 1 11 32
M  V30 33 1 13 33
M  V30 34 1 13 34
M  V30 35 1 15 35
M  V30 36 1 15 36
M  V30 37 1 16 37
M  V30 38 1 17 38
M  V30 END BOND
M  V30 END CTAB
M  END
