
     RDKit          3D

  0  0  0  0  0  0  0  0  0  0999 V3000
M  V30 BEGIN CTAB
M  V30 COUNTS 22 21 0 0 0
M  V30 BEGIN ATOM
M  V30 1 C 2.5077 0.56285 0.449247 0
M  V30 2 C 1.04992 0.722758 0.183389 0
M  V30 3 C 0.600698 0.00170987 -1.07034 0
M  V30 4 C 0.895003 -1.42792 -0.893986 0
M  V30 5 C 1.13998 -2.60405 -0.769823 0
M  V30 6 N -0.840513 0.197451 -1.20351 0
M  V30 7 C -1.7479 -0.233661 -0.221261 0
M  V30 8 N -2.40538 0.615984 0.452907 0
M  V30 9 N -2.23172 1.97323 0.223732 0
M  V30 10 N -1.92319 -1.60945 0.0103044 0
M  V30 11 H 2.69538 -0.104858 1.32054 0
M  V30 12 H 3.03797 0.102202 -0.409921 0
M  V30 13 H 2.94106 1.5553 0.723357 0
M  V30 14 H 0.806987 1.80636 0.0202796 0
M  V30 15 H 0.476916 0.3486 1.04431 0
M  V30 16 H 1.12986 0.333979 -1.95928 0
M  V30 17 H 1.36425 -3.63478 -0.658035 0
M  V30 18 H -1.18193 0.678639 -2.07113 0
M  V30 19 H -2.11703 2.4002 -0.725546 0
M  V30 20 H -2.21179 2.61822 1.02875 0
M  V30 21 H -1.95281 -2.05502 0.952201 0
M  V30 22 H -2.03348 -2.24774 -0.807921 0
M  V30 END ATOM
M  V30 BEGIN BOND
M  V30 1 1 1 2
M  V30 2 1 2 3
M  V30 3 1 3 4
M  V30 4 3 4 5
M  V30 5 1 3 6
M  V30 6 1 6 7
M  V30 7 2 7 8 CFG=2
M  V30 8 1 8 9
M  V30 9 1 7 10
M  V30 10 1 1 11
M  V30 11 1 1 12
M  V30 12 1 1 13
M  V30 13 1 2 14
M  V30 14 1 2 15
M  V30 15 1 3 16
M  V30 16 1 5 17
M  V30 17 1 6 18
M  V30 18 1 9 19
M  V30 19 1 9 20
M  V30 20 1 10 21
M  V30 21 1 10 22
M  V30 END BOND
M  V30 END CTAB
M  END
