
     RDKit          3D

  0  0  0  0  0  0  0  0  0  0999 V3000
M  V30 BEGIN CTAB
M  V30 COUNTS 25 25 0 0 0
M  V30 BEGIN ATOM
M  V30 1 C 4.33456 0.116757 -0.616533 0
M  V30 2 O 3.27406 -0.829442 -0.707545 0
M  V30 3 C 2.01176 -0.439348 -0.312493 0
M  V30 4 O 1.81009 0.729783 0.118594 0
M  V30 5 C 0.846278 -1.3805 -0.380151 0
M  V30 6 C -0.376037 -0.701881 0.107336 0
M  V30 7 C -0.847651 -0.992166 1.35879 0
M  V30 8 C -1.99873 -0.332473 1.78911 0
M  V30 9 C -2.64533 0.579621 0.992244 0
M  V30 10 C -2.12136 0.828286 -0.257314 0
M  V30 11 C -0.984594 0.212259 -0.749954 0
M  V30 12 N -0.490369 0.502266 -2.03498 0
M  V30 13 N -3.81352 1.23178 1.46762 0
M  V30 14 H 5.22635 -0.313729 -1.09346 0
M  V30 15 H 4.53645 0.251361 0.452757 0
M  V30 16 H 4.04309 1.08263 -1.09069 0
M  V30 17 H 0.727166 -1.72389 -1.44268 0
M  V30 18 H 1.00303 -2.27778 0.253477 0
M  V30 19 H -0.392324 -1.69734 2.03818 0
M  V30 20 H -2.40083 -0.532619 2.7686 0
M  V30 21 H -2.59862 1.55026 -0.94103 0
M  V30 22 H -0.389761 -0.252503 -2.73877 0
M  V30 23 H -0.223046 1.46489 -2.29548 0
M  V30 24 H -4.01962 2.23892 1.30625 0
M  V30 25 H -4.51105 0.684845 2.00814 0
M  V30 END ATOM
M  V30 BEGIN BOND
M  V30 1 1 1 2
M  V30 2 1 2 3
M  V30 3 2 3 4
M  V30 4 1 3 5
M  V30 5 1 5 6
M  V30 6 2 6 7
M  V30 7 1 7 8
M  V30 8 2 8 9
M  V30 9 1 9 10
M  V30 10 2 10 11
M  V30 11 1 11 12
M  V30 12 1 9 13
M  V30 13 1 11 6
M  V30 14 1 1 14
M  V30 15 1 1 15
M  V30 16 1 1 16
M  V30 17 1 5 17
M  V30 18 1 5 18
M  V30 19 1 7 19
M  V30 20 1 8 20
M  V30 21 1 10 21
M  V30 22 1 12 22
M  V30 23 1 12 23
M  V30 24 1 13 24
M  V30 25 1 13 25
M  V30 END BOND
M  V30 END CTAB
M  END
