
     RDKit          3D

  0  0  0  0  0  0  0  0  0  0999 V3000
M  V30 BEGIN CTAB
M  V30 COUNTS 37 38 0 0 0
M  V30 BEGIN ATOM
M  V30 1 O -1.17306 -0.728424 -1.89045 0
M  V30 2 C -0.541674 -0.328674 -0.829409 0
M  V30 3 N -1.33853 0.123733 0.232551 0
M  V30 4 C -2.73455 0.211896 0.325952 0
M  V30 5 C -3.64644 -0.141457 -0.644089 0
M  V30 6 C -5.02913 -0.0309497 -0.493416 0
M  V30 7 C -5.94345 -0.441886 -1.60815 0
M  V30 8 C -5.49879 0.459477 0.694056 0
M  V30 9 C -4.60432 0.8176 1.67448 0
M  V30 10 C -3.23987 0.714937 1.54181 0
M  V30 11 N -2.36981 1.10655 2.60401 0
M  V30 12 N 0.859208 -0.385652 -0.843745 0
M  V30 13 C 1.75309 -0.0226205 0.149344 0
M  V30 14 O 1.37817 0.424025 1.24884 0
M  V30 15 C 3.21431 -0.134969 -0.0122805 0
M  V30 16 C 4.00746 -0.0519695 1.09545 0
M  V30 17 C 5.39396 -0.141888 1.04239 0
M  V30 18 C 5.95434 -0.321394 -0.19112 0
M  V30 19 C 5.18071 -0.405994 -1.30315 0
M  V30 20 C 3.78371 -0.314191 -1.2401 0
M  V30 21 N 7.38709 -0.422291 -0.312851 0
M  V30 22 H -0.803743 0.443006 1.08194 0
M  V30 23 H -3.32232 -0.533599 -1.59828 0
M  V30 24 H -6.91271 -0.806587 -1.22668 0
M  V30 25 H -6.14996 0.418367 -2.27832 0
M  V30 26 H -5.41543 -1.2563 -2.14752 0
M  V30 27 H -6.57429 0.545944 0.812544 0
M  V30 28 H -4.98943 1.20985 2.62335 0
M  V30 29 H -2.49839 2.04399 3.03412 0
M  V30 30 H -1.62208 0.499525 2.96028 0
M  V30 31 H 1.3063 -0.763528 -1.75112 0
M  V30 32 H 3.5929 0.0910749 2.09466 0
M  V30 33 H 5.98652 -0.0719991 1.93671 0
M  V30 34 H 5.63952 -0.550252 -2.29013 0
M  V30 35 H 3.20781 -0.384627 -2.1577 0
M  V30 36 H 7.81805 0.2124 -1.02899 0
M  V30 37 H 7.94483 -1.08311 0.274837 0
M  V30 END ATOM
M  V30 BEGIN BOND
M  V30 1 2 1 2
M  V30 2 1 2 3
M  V30 3 1 3 4
M  V30 4 2 4 5
M  V30 5 1 5 6
M  V30 6 1 6 7
M  V30 7 2 6 8
M  V30 8 1 8 9
M  V30 9 2 9 10
M  V30 10 1 10 11
M  V30 11 1 2 12
M  V30 12 1 12 13
M  V30 13 2 13 14
M  V30 14 1 13 15
M  V30 15 2 15 16
M  V30 16 1 16 17
M  V30 17 2 17 18
M  V30 18 1 18 19
M  V30 19 2 19 20
M  V30 20 1 18 21
M  V30 21 1 10 4
M  V30 22 1 20 15
M  V30 23 1 3 22
M  V30 24 1 5 23
M  V30 25 1 7 24
M  V30 26 1 7 25
M  V30 27 1 7 26
M  V30 28 1 8 27
M  V30 29 1 9 28
M  V30 30 1 11 29
M  V30 31 1 11 30
M  V30 32 1 12 31
M  V30 33 1 16 32
M  V30 34 1 17 33
M  V30 35 1 19 34
M  V30 36 1 20 35
M  V30 37 1 21 36
M  V30 38 1 21 37
M  V30 END BOND
M  V30 END CTAB
M  END
