
     RDKit          3D

  0  0  0  0  0  0  0  0  0  0999 V3000
M  V30 BEGIN CTAB
M  V30 COUNTS 58 65 0 0 0
M  V30 BEGIN ATOM
M  V30 1 N -6.29916 0.396395 -3.07304 0
M  V30 2 C -7.02823 -0.0380288 -1.95836 0
M  V30 3 C -6.39151 -0.229971 -0.743195 0
M  V30 4 C -4.96023 0.0271607 -0.649433 0
M  V30 5 O -4.36151 0.40993 -1.66405 0
M  V30 6 C -4.30356 -0.176894 0.626891 0
M  V30 7 C -4.97029 -0.603302 1.75767 0
M  V30 8 N -4.10382 -0.700278 2.78178 0
M  V30 9 C -2.88794 -0.340118 2.31853 0
M  V30 10 C -2.98507 -0.0117812 0.987914 0
M  V30 11 C -1.88881 0.398579 0.241994 0
M  V30 12 C -0.641709 0.491191 0.826527 0
M  V30 13 C -0.547953 0.161353 2.16041 0
M  V30 14 C -1.63382 -0.247334 2.90779 0
M  V30 15 C 0.53569 0.920024 0.0710693 0
M  V30 16 C 1.80436 0.446457 0.375767 0
M  V30 17 C 2.92585 0.840034 -0.325875 0
M  V30 18 C 2.76987 1.73579 -1.3646 0
M  V30 19 N 4.00752 1.93474 -1.85743 0
M  V30 20 C 4.91379 1.20551 -1.17235 0
M  V30 21 C 4.25524 0.49482 -0.187082 0
M  V30 22 C 5.00641 -0.380601 0.704717 0
M  V30 23 O 4.41438 -1.02029 1.59139 0
M  V30 24 C 6.46522 -0.546026 0.602027 0
M  V30 25 C 7.16018 -1.37796 1.45348 0
M  V30 26 N 6.49403 -2.11362 2.47007 0
M  V30 27 C 8.52511 -1.52537 1.34858 0
M  V30 28 C 9.15286 -0.796762 0.348227 0
M  V30 29 C 8.47534 0.037357 -0.509391 0
M  V30 30 C 7.09749 0.173679 -0.388565 0
M  V30 31 C 6.36442 1.05757 -1.29425 0
M  V30 32 O 6.95111 1.7127 -2.19826 0
M  V30 33 C 1.51479 2.2345 -1.7022 0
M  V30 34 C 0.416621 1.81336 -0.972404 0
M  V30 35 C -6.40214 -0.861612 1.66806 0
M  V30 36 O -7.02303 -1.24623 2.67337 0
M  V30 37 C -7.07693 -0.658616 0.382049 0
M  V30 38 C -8.42929 -0.904628 0.305068 0
M  V30 39 C -9.06618 -0.717147 -0.893111 0
M  V30 40 C -8.38962 -0.293416 -2.00626 0
M  V30 41 H -6.09495 1.40332 -3.20303 0
M  V30 42 H -5.95814 -0.29124 -3.77769 0
M  V30 43 H -4.31898 -0.999418 3.76509 0
M  V30 44 H -2.00319 0.649134 -0.803916 0
M  V30 45 H 0.417661 0.225589 2.64173 0
M  V30 46 H -1.57496 -0.50985 3.95715 0
M  V30 47 H 1.87799 -0.258858 1.2039 0
M  V30 48 H 4.19007 2.57717 -2.6632 0
M  V30 49 H 6.2619 -3.12214 2.31586 0
M  V30 50 H 6.21359 -1.70095 3.38631 0
M  V30 51 H 9.0789 -2.17968 2.01686 0
M  V30 52 H 10.22 -0.913227 0.267777 0
M  V30 53 H 8.97738 0.605173 -1.29155 0
M  V30 54 H 1.40652 2.9354 -2.51765 0
M  V30 55 H -0.594219 2.17665 -1.19836 0
M  V30 56 H -8.94317 -1.24194 1.20912 0
M  V30 57 H -10.1327 -0.916107 -0.934945 0
M  V30 58 H -8.88321 -0.140189 -2.96491 0
M  V30 END ATOM
M  V30 BEGIN BOND
M  V30 1 1 1 2
M  V30 2 2 2 3
M  V30 3 1 3 4
M  V30 4 2 4 5
M  V30 5 1 4 6
M  V30 6 2 6 7
M  V30 7 1 7 8
M  V30 8 1 8 9
M  V30 9 2 9 10
M  V30 10 1 10 11
M  V30 11 2 11 12
M  V30 12 1 12 13
M  V30 13 2 13 14
M  V30 14 1 12 15
M  V30 15 2 15 16
M  V30 16 1 16 17
M  V30 17 2 17 18
M  V30 18 1 18 19
M  V30 19 1 19 20
M  V30 20 2 20 21
M  V30 21 1 21 22
M  V30 22 2 22 23
M  V30 23 1 22 24
M  V30 24 2 24 25
M  V30 25 1 25 26
M  V30 26 1 25 27
M  V30 27 2 27 28
M  V30 28 1 28 29
M  V30 29 2 29 30
M  V30 30 1 30 31
M  V30 31 2 31 32
M  V30 32 1 18 33
M  V30 33 2 33 34
M  V30 34 1 7 35
M  V30 35 2 35 36
M  V30 36 1 35 37
M  V30 37 2 37 38
M  V30 38 1 38 39
M  V30 39 2 39 40
M  V30 40 1 40 2
M  V30 41 1 37 3
M  V30 42 1 10 6
M  V30 43 1 34 15
M  V30 44 1 14 9
M  V30 45 1 21 17
M  V30 46 1 30 24
M  V30 47 1 31 20
M  V30 48 1 1 41
M  V30 49 1 1 42
M  V30 50 1 8 43
M  V30 51 1 11 44
M  V30 52 1 13 45
M  V30 53 1 14 46
M  V30 54 1 16 47
M  V30 55 1 19 48
M  V30 56 1 26 49
M  V30 57 1 26 50
M  V30 58 1 27 51
M  V30 59 1 28 52
M  V30 60 1 29 53
M  V30 61 1 33 54
M  V30 62 1 34 55
M  V30 63 1 38 56
M  V30 64 1 39 57
M  V30 65 1 40 58
M  V30 END BOND
M  V30 END CTAB
M  END
