
     RDKit          3D

  0  0  0  0  0  0  0  0  0  0999 V3000
M  V30 BEGIN CTAB
M  V30 COUNTS 34 35 0 0 0
M  V30 BEGIN ATOM
M  V30 1 N -7.06337 0.646806 -0.323231 0
M  V30 2 C -5.72117 0.379777 0.00747208 0
M  V30 3 C -5.35929 -0.746569 0.751984 0
M  V30 4 C -4.08001 -1.0379 1.0918 0
M  V30 5 C -3.03681 -0.177805 0.687238 0
M  V30 6 C -3.37522 0.936172 -0.0451871 0
M  V30 7 C -4.71515 1.21923 -0.389678 0
M  V30 8 N -1.71746 -0.487256 1.07467 0
M  V30 9 C -0.597235 -0.161438 0.19024 0
M  V30 10 O -0.927406 0.354984 -0.863846 0
M  V30 11 N 0.694743 -0.489572 0.674459 0
M  V30 12 C 1.56419 0.126603 -0.686685 0
M  V30 13 O 0.909604 0.553897 -1.54053 0
M  V30 14 C 2.95411 -0.0293671 -0.443762 0
M  V30 15 C 3.55355 -1.12629 0.174373 0
M  V30 16 C 4.91929 -1.16835 0.371265 0
M  V30 17 C 5.76374 -0.154534 -0.0191463 0
M  V30 18 C 5.14519 0.938131 -0.637722 0
M  V30 19 C 3.80543 1.01951 -0.850173 0
M  V30 20 N 7.17278 -0.17883 0.178615 0
M  V30 21 H -7.29575 1.39921 -1.01133 0
M  V30 22 H -7.86056 0.121626 0.0950163 0
M  V30 23 H -6.18089 -1.39354 1.0521 0
M  V30 24 H -3.79022 -1.91464 1.6764 0
M  V30 25 H -2.62173 1.64888 -0.357748 0
M  V30 26 H -4.90376 2.11507 -0.97721 0
M  V30 27 H -1.52403 -0.958499 2.00093 0
M  V30 28 H 1.50293 -0.694809 0.977306 0
M  V30 29 H 2.92103 -1.9561 0.494314 0
M  V30 30 H 5.34972 -2.03662 0.8597 0
M  V30 31 H 5.80308 1.73888 -0.950617 0
M  V30 32 H 3.36637 1.87867 -1.33146 0
M  V30 33 H 7.53294 -0.42706 1.11972 0
M  V30 34 H 7.81137 0.0617358 -0.629918 0
M  V30 END ATOM
M  V30 BEGIN BOND
M  V30 1 1 1 2
M  V30 2 2 2 3
M  V30 3 1 3 4
M  V30 4 2 4 5
M  V30 5 1 5 6
M  V30 6 2 6 7
M  V30 7 1 5 8
M  V30 8 1 8 9
M  V30 9 2 9 10
M  V30 10 1 9 11
M  V30 11 1 11 12
M  V30 12 2 12 13
M  V30 13 1 12 14
M  V30 14 2 14 15
M  V30 15 1 15 16
M  V30 16 2 16 17
M  V30 17 1 17 18
M  V30 18 2 18 19
M  V30 19 1 17 20
M  V30 20 1 7 2
M  V30 21 1 19 14
M  V30 22 1 1 21
M  V30 23 1 1 22
M  V30 24 1 3 23
M  V30 25 1 4 24
M  V30 26 1 6 25
M  V30 27 1 7 26
M  V30 28 1 8 27
M  V30 29 1 11 28
M  V30 30 1 15 29
M  V30 31 1 16 30
M  V30 32 1 18 31
M  V30 33 1 19 32
M  V30 34 1 20 33
M  V30 35 1 20 34
M  V30 END BOND
M  V30 END CTAB
M  END
