
     RDKit          3D

  0  0  0  0  0  0  0  0  0  0999 V3000
M  V30 BEGIN CTAB
M  V30 COUNTS 38 40 0 0 0
M  V30 BEGIN ATOM
M  V30 1 N 1.04258 -3.26874 1.83763 0
M  V30 2 N 0.0448118 -2.67488 1.16598 0
M  V30 3 C -0.0451027 -1.3871 0.714321 0
M  V30 4 C -1.3221 -1.20332 0.0412118 0
M  V30 5 C -1.7358 -2.27935 -0.819141 0
M  V30 6 C -2.7387 -2.17885 -1.71143 0
M  V30 7 C -3.45899 -1.02796 -1.87408 0
M  V30 8 C -3.11019 0.0378628 -1.06766 0
M  V30 9 C -2.07392 -0.0883085 -0.154371 0
M  V30 10 C -1.88029 0.976172 0.691718 0
M  V30 11 C -2.62659 2.10711 0.662039 0
M  V30 12 C -3.65386 2.21895 -0.267474 0
M  V30 13 C -3.88508 1.17606 -1.12617 0
M  V30 14 C 1.17592 -0.676398 0.847233 0
M  V30 15 N 2.13951 -1.42485 1.49853 0
M  V30 16 N 3.37835 -0.821257 1.69023 0
M  V30 17 C 1.80412 0.48285 0.257119 0
M  V30 18 C 1.51117 1.77166 0.281768 0
M  V30 19 C 2.15759 2.7824 -0.456859 0
M  V30 20 C 3.19196 2.44953 -1.28942 0
M  V30 21 C 3.53847 1.13457 -1.35348 0
M  V30 22 C 2.90236 0.165855 -0.633456 0
M  V30 23 H 1.1971 -3.236 2.89048 0
M  V30 24 H 1.79815 -3.8729 1.37464 0
M  V30 25 H -1.18907 -3.19009 -0.712169 0
M  V30 26 H -3.03245 -3.01845 -2.35803 0
M  V30 27 H -4.25304 -0.968626 -2.5956 0
M  V30 28 H -1.09827 0.847424 1.44515 0
M  V30 29 H -2.42871 2.93669 1.36457 0
M  V30 30 H -4.24142 3.11499 -0.293167 0
M  V30 31 H -4.68772 1.21457 -1.88079 0
M  V30 32 H 4.26025 -1.35813 1.498 0
M  V30 33 H 3.50603 0.160521 2.0227 0
M  V30 34 H 0.737585 2.14647 0.954393 0
M  V30 35 H 1.84234 3.80969 -0.369124 0
M  V30 36 H 3.71333 3.19769 -1.87258 0
M  V30 37 H 4.36091 0.804538 -2.00257 0
M  V30 38 H 3.15877 -0.860394 -0.709535 0
M  V30 END ATOM
M  V30 BEGIN BOND
M  V30 1 1 1 2
M  V30 2 2 2 3
M  V30 3 1 3 4
M  V30 4 2 4 5
M  V30 5 1 5 6
M  V30 6 2 6 7
M  V30 7 1 7 8
M  V30 8 2 8 9
M  V30 9 1 9 10
M  V30 10 2 10 11
M  V30 11 1 11 12
M  V30 12 2 12 13
M  V30 13 1 3 14
M  V30 14 2 14 15
M  V30 15 1 15 16
M  V30 16 1 14 17
M  V30 17 2 17 18
M  V30 18 1 18 19
M  V30 19 2 19 20
M  V30 20 1 20 21
M  V30 21 2 21 22
M  V30 22 1 9 4
M  V30 23 1 22 17
M  V30 24 1 13 8
M  V30 25 1 1 23
M  V30 26 1 1 24
M  V30 27 1 5 25
M  V30 28 1 6 26
M  V30 29 1 7 27
M  V30 30 1 10 28
M  V30 31 1 11 29
M  V30 32 1 12 30
M  V30 33 1 13 31
M  V30 34 1 16 32
M  V30 35 1 16 33
M  V30 36 1 18 34
M  V30 37 1 19 35
M  V30 38 1 20 36
M  V30 39 1 21 37
M  V30 40 1 22 38
M  V30 END BOND
M  V30 END CTAB
M  END
