
     RDKit          3D

  0  0  0  0  0  0  0  0  0  0999 V3000
M  V30 BEGIN CTAB
M  V30 COUNTS 27 27 0 0 0
M  V30 BEGIN ATOM
M  V30 1 O 0.859735 1.39252 1.53331 0
M  V30 2 N 1.97093 0.628908 1.512 0
M  V30 3 C 2.26084 -0.263997 0.648016 0
M  V30 4 C 1.40814 -0.593096 -0.471186 0
M  V30 5 C 0.222195 0.188404 -0.747094 0
M  V30 6 C 0.452824 1.40039 -1.48082 0
M  V30 7 C -0.554601 2.25023 -1.79719 0
M  V30 8 C -1.83174 1.96807 -1.41946 0
M  V30 9 C -2.07426 0.830813 -0.729115 0
M  V30 10 C -1.03951 -0.100768 -0.370002 0
M  V30 11 C -1.59396 -1.13827 0.450242 0
M  V30 12 N -1.06967 -1.92708 1.23621 0
M  V30 13 O 0.0576154 -2.20765 1.6853 0
M  V30 14 N -3.04846 -1.41914 0.2861 0
M  V30 15 N 3.48364 -0.965767 0.788186 0
M  V30 16 H 0.296448 1.53492 2.36237 0
M  V30 17 H 1.23056 -1.68336 -0.561274 0
M  V30 18 H 2.09032 -0.442429 -1.41776 0
M  V30 19 H 1.48887 1.60015 -1.77395 0
M  V30 20 H -0.360808 3.16786 -2.35729 0
M  V30 21 H -2.63903 2.66563 -1.67448 0
M  V30 22 H -3.10037 0.64891 -0.439481 0
M  V30 23 H 0.580206 -2.06424 2.52602 0
M  V30 24 H -3.30863 -2.1712 -0.335921 0
M  V30 25 H -3.66338 -0.81014 0.82936 0
M  V30 26 H 4.31387 -0.828907 0.168074 0
M  V30 27 H 3.56822 -1.66075 1.54984 0
M  V30 END ATOM
M  V30 BEGIN BOND
M  V30 1 1 1 2
M  V30 2 2 2 3
M  V30 3 1 3 4
M  V30 4 1 4 5
M  V30 5 2 5 6
M  V30 6 1 6 7
M  V30 7 2 7 8
M  V30 8 1 8 9
M  V30 9 2 9 10
M  V30 10 1 10 11
M  V30 11 2 11 12
M  V30 12 1 12 13
M  V30 13 1 11 14
M  V30 14 1 3 15
M  V30 15 1 10 5
M  V30 16 1 1 16
M  V30 17 1 4 17
M  V30 18 1 4 18
M  V30 19 1 6 19
M  V30 20 1 7 20
M  V30 21 1 8 21
M  V30 22 1 9 22
M  V30 23 1 13 23
M  V30 24 1 14 24
M  V30 25 1 14 25
M  V30 26 1 15 26
M  V30 27 1 15 27
M  V30 END BOND
M  V30 END CTAB
M  END
