
     RDKit          3D

  0  0  0  0  0  0  0  0  0  0999 V3000
M  V30 BEGIN CTAB
M  V30 COUNTS 31 32 0 0 0
M  V30 BEGIN ATOM
M  V30 1 C -3.37751 -2.38978 -1.06112 0
M  V30 2 O -3.35773 -1.7725 0.209205 0
M  V30 3 C -3.27946 -0.396636 0.375281 0
M  V30 4 C -2.04985 0.210626 0.472234 0
M  V30 5 C -0.812118 -0.595359 0.400333 0
M  V30 6 N 0.346311 -0.0447004 0.489096 0
M  V30 7 N 1.54422 -0.741249 0.429491 0
M  V30 8 C 2.639 -0.14803 0.0656093 0
M  V30 9 C 3.90651 -0.862952 -0.00301904 0
M  V30 10 N 4.10835 -2.15065 0.281384 0
M  V30 11 O 5.35398 -2.4111 0.102693 0
M  V30 12 N 6.00431 -1.36259 -0.288607 0
M  V30 13 C 5.12325 -0.340579 -0.372997 0
M  V30 14 N 5.44222 0.986448 -0.769402 0
M  V30 15 N 2.60181 1.22502 -0.272549 0
M  V30 16 C -2.0067 1.5713 0.635801 0
M  V30 17 C -3.1534 2.3155 0.702101 0
M  V30 18 C -4.36997 1.68808 0.602993 0
M  V30 19 C -4.46664 0.302562 0.435396 0
M  V30 20 Cl -6.03007 -0.474645 0.311501 0
M  V30 21 Cl -3.07145 4.0466 0.910736 0
M  V30 22 H -4.41225 -2.43311 -1.48252 0
M  V30 23 H -3.04621 -3.43826 -0.915688 0
M  V30 24 H -2.75537 -1.87909 -1.79702 0
M  V30 25 H -0.848998 -1.66508 0.271676 0
M  V30 26 H 5.56008 1.7226 -0.0473472 0
M  V30 27 H 5.56638 1.26462 -1.76583 0
M  V30 28 H 2.83287 1.93283 0.470611 0
M  V30 29 H 2.34542 1.49988 -1.25302 0
M  V30 30 H -1.05657 2.09047 0.716692 0
M  V30 31 H -5.2804 2.24979 0.652134 0
M  V30 END ATOM
M  V30 BEGIN BOND
M  V30 1 1 1 2
M  V30 2 1 2 3
M  V30 3 2 3 4
M  V30 4 1 4 5
M  V30 5 2 5 6
M  V30 6 1 6 7
M  V30 7 2 7 8
M  V30 8 1 8 9
M  V30 9 2 9 10
M  V30 10 1 10 11
M  V30 11 1 11 12
M  V30 12 2 12 13
M  V30 13 1 13 14
M  V30 14 1 8 15
M  V30 15 1 4 16
M  V30 16 2 16 17
M  V30 17 1 17 18
M  V30 18 2 18 19
M  V30 19 1 19 20
M  V30 20 1 17 21
M  V30 21 1 19 3
M  V30 22 1 13 9
M  V30 23 1 1 22
M  V30 24 1 1 23
M  V30 25 1 1 24
M  V30 26 1 5 25
M  V30 27 1 14 26
M  V30 28 1 14 27
M  V30 29 1 15 28
M  V30 30 1 15 29
M  V30 31 1 16 30
M  V30 32 1 18 31
M  V30 END BOND
M  V30 END CTAB
M  END
