
     RDKit          3D

  0  0  0  0  0  0  0  0  0  0999 V3000
M  V30 BEGIN CTAB
M  V30 COUNTS 43 45 0 0 0
M  V30 BEGIN ATOM
M  V30 1 N -6.31199 1.6236 0.00734869 0
M  V30 2 C -5.87202 0.235532 0.106962 0
M  V30 3 C -4.79195 -0.114878 -0.908279 0
M  V30 4 C -3.78181 0.44566 0.0692719 0
M  V30 5 C -4.79785 0.134335 1.17669 0
M  V30 6 C -2.5542 -0.3331 0.23178 0
M  V30 7 C -1.3338 0.306615 0.211899 0
M  V30 8 C -0.129361 -0.363027 0.359235 0
M  V30 9 N 1.10831 0.318346 0.334875 0
M  V30 10 C 2.32638 -0.414899 0.491128 0
M  V30 11 C 3.56083 0.462194 0.435537 0
M  V30 12 C 4.79628 -0.363165 0.606745 0
M  V30 13 C 6.00012 0.0907193 -0.0952071 0
M  V30 14 O 5.8129 0.924537 -1.17274 0
M  V30 15 C 4.90049 1.94487 -0.928467 0
M  V30 16 C 3.53943 1.2348 -0.863668 0
M  V30 17 N -0.183679 -1.6867 0.526335 0
M  V30 18 C -1.3546 -2.35049 0.551829 0
M  V30 19 N -2.52587 -1.67076 0.404888 0
M  V30 20 N -1.33771 -3.75722 0.733211 0
M  V30 21 H -5.60126 2.29108 0.331171 0
M  V30 22 H -6.56472 1.86833 -0.988894 0
M  V30 23 H -6.68069 -0.494132 0.194953 0
M  V30 24 H -4.7214 -1.22428 -0.994666 0
M  V30 25 H -4.86611 0.412142 -1.87127 0
M  V30 26 H -3.60359 1.51209 -0.0584877 0
M  V30 27 H -4.65575 -0.893107 1.5295 0
M  V30 28 H -4.85351 0.91788 1.95276 0
M  V30 29 H -1.28619 1.3887 0.0754621 0
M  V30 30 H 1.16599 1.36077 0.204728 0
M  V30 31 H 2.33251 -0.878401 1.51941 0
M  V30 32 H 2.40363 -1.27162 -0.207903 0
M  V30 33 H 3.4565 1.20525 1.25454 0
M  V30 34 H 5.01659 -0.416367 1.70968 0
M  V30 35 H 4.53768 -1.41126 0.31972 0
M  V30 36 H 6.6084 -0.774179 -0.459971 0
M  V30 37 H 6.6956 0.635109 0.61048 0
M  V30 38 H 5.10862 2.51851 -0.0224326 0
M  V30 39 H 4.86149 2.58405 -1.82396 0
M  V30 40 H 3.51752 0.569306 -1.75328 0
M  V30 41 H 2.77126 2.00592 -0.861549 0
M  V30 42 H -0.67201 -4.40387 0.26556 0
M  V30 43 H -2.04048 -4.16891 1.379 0
M  V30 END ATOM
M  V30 BEGIN BOND
M  V30 1 1 1 2
M  V30 2 1 2 3
M  V30 3 1 3 4
M  V30 4 1 4 5
M  V30 5 1 4 6
M  V30 6 2 6 7
M  V30 7 1 7 8
M  V30 8 1 8 9
M  V30 9 1 9 10
M  V30 10 1 10 11
M  V30 11 1 11 12
M  V30 12 1 12 13
M  V30 13 1 13 14
M  V30 14 1 14 15
M  V30 15 1 15 16
M  V30 16 2 8 17
M  V30 17 1 17 18
M  V30 18 2 18 19
M  V30 19 1 18 20
M  V30 20 1 5 2
M  V30 21 1 19 6
M  V30 22 1 16 11
M  V30 23 1 1 21
M  V30 24 1 1 22
M  V30 25 1 2 23
M  V30 26 1 3 24
M  V30 27 1 3 25
M  V30 28 1 4 26
M  V30 29 1 5 27
M  V30 30 1 5 28
M  V30 31 1 7 29
M  V30 32 1 9 30
M  V30 33 1 10 31
M  V30 34 1 10 32
M  V30 35 1 11 33
M  V30 36 1 12 34
M  V30 37 1 12 35
M  V30 38 1 13 36
M  V30 39 1 13 37
M  V30 40 1 15 38
M  V30 41 1 15 39
M  V30 42 1 16 40
M  V30 43 1 16 41
M  V30 44 1 20 42
M  V30 45 1 20 43
M  V30 END BOND
M  V30 END CTAB
M  END
