
     RDKit          3D

  0  0  0  0  0  0  0  0  0  0999 V3000
M  V30 BEGIN CTAB
M  V30 COUNTS 28 28 0 0 0
M  V30 BEGIN ATOM
M  V30 1 O 3.7389 1.00913 -1.5893 0
M  V30 2 C 2.99944 -0.00495506 -1.02024 0
M  V30 3 C 2.05791 0.589134 0.0170902 0
M  V30 4 N 1.27762 -0.457688 0.618317 0
M  V30 5 C -0.103549 -0.514228 0.329426 0
M  V30 6 C -0.835972 0.654399 0.380882 0
M  V30 7 C -2.18792 0.643761 0.0680671 0
M  V30 8 N -2.97836 1.84303 0.117013 0
M  V30 9 N -2.48899 3.0611 0.527386 0
M  V30 10 N -2.73351 -0.536112 -0.277015 0
M  V30 11 C -2.04088 -1.68615 -0.332554 0
M  V30 12 N -0.728446 -1.64699 -0.0249422 0
M  V30 13 N -2.61176 -2.93315 -0.709712 0
M  V30 14 C 1.88017 -1.42575 1.47914 0
M  V30 15 H 3.09776 1.71126 -1.91676 0
M  V30 16 H 3.6988 -0.664989 -0.470927 0
M  V30 17 H 2.47624 -0.630756 -1.76816 0
M  V30 18 H 2.6731 1.15465 0.730107 0
M  V30 19 H 1.45398 1.34847 -0.526915 0
M  V30 20 H -0.418596 1.60779 0.659569 0
M  V30 21 H -3.96789 1.76257 -0.184585 0
M  V30 22 H -1.58535 3.29913 0.0737357 0
M  V30 23 H -3.20032 3.80318 0.325152 0
M  V30 24 H -3.62442 -3.12647 -0.566918 0
M  V30 25 H -2.03348 -3.68531 -1.13584 0
M  V30 26 H 1.91434 -2.45757 1.029 0
M  V30 27 H 1.3314 -1.53144 2.45316 0
M  V30 28 H 2.93977 -1.18605 1.71583 0
M  V30 END ATOM
M  V30 BEGIN BOND
M  V30 1 1 1 2
M  V30 2 1 2 3
M  V30 3 1 3 4
M  V30 4 1 4 5
M  V30 5 2 5 6
M  V30 6 1 6 7
M  V30 7 1 7 8
M  V30 8 1 8 9
M  V30 9 2 7 10
M  V30 10 1 10 11
M  V30 11 2 11 12
M  V30 12 1 11 13
M  V30 13 1 4 14
M  V30 14 1 12 5
M  V30 15 1 1 15
M  V30 16 1 2 16
M  V30 17 1 2 17
M  V30 18 1 3 18
M  V30 19 1 3 19
M  V30 20 1 6 20
M  V30 21 1 8 21
M  V30 22 1 9 22
M  V30 23 1 9 23
M  V30 24 1 13 24
M  V30 25 1 13 25
M  V30 26 1 14 26
M  V30 27 1 14 27
M  V30 28 1 14 28
M  V30 END BOND
M  V30 END CTAB
M  END
