
     RDKit          3D

  0  0  0  0  0  0  0  0  0  0999 V3000
M  V30 BEGIN CTAB
M  V30 COUNTS 22 23 0 0 0
M  V30 BEGIN ATOM
M  V30 1 N -2.96687 -0.991831 -0.52752 0
M  V30 2 C -1.66914 -0.46592 -0.257642 0
M  V30 3 C -0.539871 -1.2219 -0.541734 0
M  V30 4 C 0.720275 -0.72495 -0.285533 0
M  V30 5 C 0.815156 0.540642 0.25892 0
M  V30 6 C 2.07987 1.05348 0.522064 0
M  V30 7 C 3.22696 0.331562 0.253153 0
M  V30 8 C 3.12309 -0.930952 -0.29029 0
M  V30 9 C 1.87981 -1.43579 -0.549271 0
M  V30 10 C -0.313622 1.28971 0.540069 0
M  V30 11 C -1.58648 0.7986 0.285926 0
M  V30 12 N -2.75188 1.56212 0.571986 0
M  V30 13 H -3.20122 -1.44094 -1.45033 0
M  V30 14 H -3.71566 -0.93816 0.198181 0
M  V30 15 H -0.611323 -2.21216 -0.967637 0
M  V30 16 H 2.16342 2.04974 0.950971 0
M  V30 17 H 4.22196 0.707293 0.448301 0
M  V30 18 H 3.98611 -1.54267 -0.521919 0
M  V30 19 H 1.80101 -2.42696 -0.975825 0
M  V30 20 H -0.256698 2.29204 0.970637 0
M  V30 21 H -2.83862 2.56524 0.299858 0
M  V30 22 H -3.56627 1.14179 1.06764 0
M  V30 END ATOM
M  V30 BEGIN BOND
M  V30 1 1 1 2
M  V30 2 2 2 3
M  V30 3 1 3 4
M  V30 4 2 4 5
M  V30 5 1 5 6
M  V30 6 2 6 7
M  V30 7 1 7 8
M  V30 8 2 8 9
M  V30 9 1 5 10
M  V30 10 2 10 11
M  V30 11 1 11 12
M  V30 12 1 11 2
M  V30 13 1 9 4
M  V30 14 1 1 13
M  V30 15 1 1 14
M  V30 16 1 3 15
M  V30 17 1 6 16
M  V30 18 1 7 17
M  V30 19 1 8 18
M  V30 20 1 9 19
M  V30 21 1 10 20
M  V30 22 1 12 21
M  V30 23 1 12 22
M  V30 END BOND
M  V30 END CTAB
M  END
