
     RDKit          3D

  0  0  0  0  0  0  0  0  0  0999 V3000
M  V30 BEGIN CTAB
M  V30 COUNTS 23 23 0 0 0
M  V30 BEGIN ATOM
M  V30 1 C 2.97708 -0.318447 -0.301928 0
M  V30 2 C 1.62115 0.0849383 0.173493 0
M  V30 3 C 0.490833 -0.495958 -0.677284 0
M  V30 4 C -0.793119 -0.0283244 -0.095687 0
M  V30 5 C -1.23824 1.25638 -0.311837 0
M  V30 6 N -0.499004 2.16289 -1.09548 0
M  V30 7 N -2.42479 1.5956 0.267823 0
M  V30 8 C -3.14093 0.739128 1.01611 0
M  V30 9 N -2.65648 -0.503298 1.19269 0
M  V30 10 C -1.50928 -0.919843 0.665283 0
M  V30 11 N -0.992741 -2.2249 0.852407 0
M  V30 12 H 3.44722 0.544383 -0.822592 0
M  V30 13 H 2.99298 -1.23652 -0.919435 0
M  V30 14 H 3.6602 -0.533586 0.572638 0
M  V30 15 H 1.53199 1.20706 0.196218 0
M  V30 16 H 1.49356 -0.240348 1.23622 0
M  V30 17 H 0.607606 -1.57677 -0.703452 0
M  V30 18 H 0.607004 -0.0895444 -1.71839 0
M  V30 19 H -0.0406632 1.82305 -1.96851 0
M  V30 20 H -0.367502 3.17321 -0.868664 0
M  V30 21 H -4.0957 1.0397 1.47411 0
M  V30 22 H -1.66185 -3.02178 0.797752 0
M  V30 23 H -0.00933473 -2.43702 1.03852 0
M  V30 END ATOM
M  V30 BEGIN BOND
M  V30 1 1 1 2
M  V30 2 1 2 3
M  V30 3 1 3 4
M  V30 4 2 4 5
M  V30 5 1 5 6
M  V30 6 1 5 7
M  V30 7 2 7 8
M  V30 8 1 8 9
M  V30 9 2 9 10
M  V30 10 1 10 11
M  V30 11 1 10 4
M  V30 12 1 1 12
M  V30 13 1 1 13
M  V30 14 1 1 14
M  V30 15 1 2 15
M  V30 16 1 2 16
M  V30 17 1 3 17
M  V30 18 1 3 18
M  V30 19 1 6 19
M  V30 20 1 6 20
M  V30 21 1 8 21
M  V30 22 1 11 22
M  V30 23 1 11 23
M  V30 END BOND
M  V30 END CTAB
M  END
