
     RDKit          3D

  0  0  0  0  0  0  0  0  0  0999 V3000
M  V30 BEGIN CTAB
M  V30 COUNTS 43 46 0 0 0
M  V30 BEGIN ATOM
M  V30 1 N -0.529651 -3.41912 2.94054 0
M  V30 2 C -1.18165 -2.74017 2.23973 0
M  V30 3 C -1.99731 -1.91589 1.39181 0
M  V30 4 C -3.02721 -2.50888 0.813762 0
M  V30 5 N -3.30224 -3.90046 1.03075 0
M  V30 6 O -3.85488 -1.77075 -0.0162549 0
M  V30 7 C -3.63507 -0.423175 -0.260075 0
M  V30 8 C -2.57062 0.246502 0.320573 0
M  V30 9 C -1.64847 -0.508168 1.22063 0
M  V30 10 C -0.225899 -0.304041 0.854752 0
M  V30 11 C 0.494668 0.679121 1.47794 0
M  V30 12 C 1.83378 0.923309 1.18111 0
M  V30 13 C 2.48165 0.162705 0.229809 0
M  V30 14 C 1.74171 -0.82684 -0.391725 0
M  V30 15 C 0.409463 -1.06415 -0.091263 0
M  V30 16 C 3.8771 0.382638 -0.111911 0
M  V30 17 C 4.71143 -0.621999 -0.521339 0
M  V30 18 C 6.02392 -0.333715 -0.828342 0
M  V30 19 C 6.52805 0.962252 -0.732351 0
M  V30 20 C 5.70095 1.96954 -0.324365 0
M  V30 21 C 4.38872 1.66479 -0.0205061 0
M  V30 22 C -2.37211 1.58091 0.0657891 0
M  V30 23 C -3.22371 2.25027 -0.760823 0
M  V30 24 C -4.30936 1.63782 -1.37432 0
M  V30 25 C -4.47802 0.303 -1.0973 0
M  V30 26 N -5.17039 2.36683 -2.22547 0
M  V30 27 H -4.25166 -4.24805 1.27956 0
M  V30 28 H -2.54428 -4.60572 0.94224 0
M  V30 29 H -1.80761 -0.0249747 2.23209 0
M  V30 30 H 0.0278962 1.29398 2.22529 0
M  V30 31 H 2.41043 1.69798 1.66778 0
M  V30 32 H 2.21248 -1.43707 -1.13573 0
M  V30 33 H -0.16572 -1.84118 -0.58146 0
M  V30 34 H 4.33733 -1.63856 -0.601923 0
M  V30 35 H 6.70698 -1.11338 -1.15556 0
M  V30 36 H 7.55332 1.19504 -0.971412 0
M  V30 37 H 6.02319 3.00582 -0.225028 0
M  V30 38 H 3.74258 2.46935 0.301217 0
M  V30 39 H -1.54804 2.08349 0.521677 0
M  V30 40 H -3.08152 3.30681 -0.97358 0
M  V30 41 H -5.30299 -0.225127 -1.54354 0
M  V30 42 H -6.0872 1.98334 -2.53223 0
M  V30 43 H -4.89003 3.30592 -2.55664 0
M  V30 END ATOM
M  V30 BEGIN BOND
M  V30 1 3 1 2
M  V30 2 1 2 3
M  V30 3 2 3 4
M  V30 4 1 4 5
M  V30 5 1 4 6
M  V30 6 1 6 7
M  V30 7 2 7 8
M  V30 8 1 8 9
M  V30 9 1 9 10
M  V30 10 2 10 11
M  V30 11 1 11 12
M  V30 12 2 12 13
M  V30 13 1 13 14
M  V30 14 2 14 15
M  V30 15 1 13 16
M  V30 16 2 16 17
M  V30 17 1 17 18
M  V30 18 2 18 19
M  V30 19 1 19 20
M  V30 20 2 20 21
M  V30 21 1 8 22
M  V30 22 2 22 23
M  V30 23 1 23 24
M  V30 24 2 24 25
M  V30 25 1 24 26
M  V30 26 1 9 3
M  V30 27 1 15 10
M  V30 28 1 21 16
M  V30 29 1 25 7
M  V30 30 1 5 27
M  V30 31 1 5 28
M  V30 32 1 9 29
M  V30 33 1 11 30
M  V30 34 1 12 31
M  V30 35 1 14 32
M  V30 36 1 15 33
M  V30 37 1 17 34
M  V30 38 1 18 35
M  V30 39 1 19 36
M  V30 40 1 20 37
M  V30 41 1 21 38
M  V30 42 1 22 39
M  V30 43 1 23 40
M  V30 44 1 25 41
M  V30 45 1 26 42
M  V30 46 1 26 43
M  V30 END BOND
M  V30 END CTAB
M  END
