
     RDKit          3D

  0  0  0  0  0  0  0  0  0  0999 V3000
M  V30 BEGIN CTAB
M  V30 COUNTS 31 31 0 0 0
M  V30 BEGIN ATOM
M  V30 1 C -1.12206 -0.326158 1.75785 0
M  V30 2 C -1.63278 -0.343245 0.349133 0
M  V30 3 C -2.86673 0.56619 0.29249 0
M  V30 4 C -2.16019 -1.74548 0.0313048 0
M  V30 5 Si -0.3644 0.195657 -0.895538 0 VAL=4
M  V30 6 N -0.812224 1.8261 -1.46875 0
M  V30 7 N -0.370965 -0.99274 -2.23399 0
M  V30 8 C 1.32482 0.244227 -0.209307 0
M  V30 9 C 2.17323 1.28512 -0.497715 0
M  V30 10 C 3.47157 1.32221 0.0298992 0
M  V30 11 C 3.90226 0.31614 0.839159 0
M  V30 12 C 3.07581 -0.725714 1.13748 0
M  V30 13 C 1.7924 -0.752562 0.609823 0
M  V30 14 H -0.892852 -1.35528 2.12839 0
M  V30 15 H -1.92263 0.0496113 2.4602 0
M  V30 16 H -0.282384 0.373643 1.8732 0
M  V30 17 H -3.77327 0.0268429 0.638291 0
M  V30 18 H -2.69683 1.39545 1.00812 0
M  V30 19 H -2.99358 1.01187 -0.706815 0
M  V30 20 H -1.3854 -2.34768 -0.49903 0
M  V30 21 H -2.49319 -2.26914 0.9489 0
M  V30 22 H -3.07159 -1.68337 -0.62438 0
M  V30 23 H -0.0117395 2.39264 -1.77324 0
M  V30 24 H -1.6187 1.82526 -2.10287 0
M  V30 25 H -1.25046 -0.947567 -2.79204 0
M  V30 26 H 0.482515 -0.86417 -2.83116 0
M  V30 27 H 1.90479 2.118 -1.13028 0
M  V30 28 H 4.12371 2.15014 -0.209122 0
M  V30 29 H 4.93211 0.385859 1.23257 0
M  V30 30 H 3.40889 -1.53417 1.78226 0
M  V30 31 H 1.12987 -1.59769 0.855164 0
M  V30 END ATOM
M  V30 BEGIN BOND
M  V30 1 1 1 2
M  V30 2 1 2 3
M  V30 3 1 2 4
M  V30 4 1 2 5
M  V30 5 1 5 6
M  V30 6 1 5 7
M  V30 7 1 5 8
M  V30 8 2 8 9
M  V30 9 1 9 10
M  V30 10 2 10 11
M  V30 11 1 11 12
M  V30 12 2 12 13
M  V30 13 1 13 8
M  V30 14 1 1 14
M  V30 15 1 1 15
M  V30 16 1 1 16
M  V30 17 1 3 17
M  V30 18 1 3 18
M  V30 19 1 3 19
M  V30 20 1 4 20
M  V30 21 1 4 21
M  V30 22 1 4 22
M  V30 23 1 6 23
M  V30 24 1 6 24
M  V30 25 1 7 25
M  V30 26 1 7 26
M  V30 27 1 9 27
M  V30 28 1 10 28
M  V30 29 1 11 29
M  V30 30 1 12 30
M  V30 31 1 13 31
M  V30 END BOND
M  V30 END CTAB
M  END
