
     RDKit          3D

  0  0  0  0  0  0  0  0  0  0999 V3000
M  V30 BEGIN CTAB
M  V30 COUNTS 24 25 0 0 0
M  V30 BEGIN ATOM
M  V30 1 F 5.29003 -0.360572 -0.336294 0
M  V30 2 C 3.92423 -0.261872 -0.249185 0
M  V30 3 C 3.13414 -1.38779 -0.243696 0
M  V30 4 C 1.77518 -1.35786 -0.159614 0
M  V30 5 C 1.13733 -0.120588 -0.0737192 0
M  V30 6 C 1.92896 1.0008 -0.0794728 0
M  V30 7 C 3.32172 0.96038 -0.166017 0
M  V30 8 C -0.318267 -0.0589678 0.0174678 0
M  V30 9 C -1.01029 1.11293 0.104167 0
M  V30 10 C -2.40495 1.16694 0.191339 0
M  V30 11 N -3.07001 2.42054 0.279497 0
M  V30 12 N -3.06773 -0.00206122 0.18744 0
M  V30 13 C -2.39644 -1.18616 0.101543 0
M  V30 14 N -1.057 -1.20147 0.0192093 0
M  V30 15 N -3.18768 -2.35574 0.105458 0
M  V30 16 H 3.63804 -2.36224 -0.311439 0
M  V30 17 H 1.14122 -2.22554 -0.153853 0
M  V30 18 H 1.47793 1.9965 -0.0141466 0
M  V30 19 H 3.8753 1.88053 -0.164883 0
M  V30 20 H -0.507039 2.06148 0.10944 0
M  V30 21 H -3.41903 2.81925 1.18619 0
M  V30 22 H -3.25205 3.02548 -0.56559 0
M  V30 23 H -3.14096 -3.01454 -0.688221 0
M  V30 24 H -3.81263 -2.54945 0.904384 0
M  V30 END ATOM
M  V30 BEGIN BOND
M  V30 1 1 1 2
M  V30 2 2 2 3
M  V30 3 1 3 4
M  V30 4 2 4 5
M  V30 5 1 5 6
M  V30 6 2 6 7
M  V30 7 1 5 8
M  V30 8 2 8 9
M  V30 9 1 9 10
M  V30 10 1 10 11
M  V30 11 2 10 12
M  V30 12 1 12 13
M  V30 13 2 13 14
M  V30 14 1 13 15
M  V30 15 1 7 2
M  V30 16 1 14 8
M  V30 17 1 3 16
M  V30 18 1 4 17
M  V30 19 1 6 18
M  V30 20 1 7 19
M  V30 21 1 9 20
M  V30 22 1 11 21
M  V30 23 1 11 22
M  V30 24 1 15 23
M  V30 25 1 15 24
M  V30 END BOND
M  V30 END CTAB
M  END
