
     RDKit          3D

  0  0  0  0  0  0  0  0  0  0999 V3000
M  V30 BEGIN CTAB
M  V30 COUNTS 31 32 0 0 0
M  V30 BEGIN ATOM
M  V30 1 N 5.37558 2.23728 -0.951145 0
M  V30 2 C 5.03833 0.913738 -0.46574 0
M  V30 3 C 3.57143 0.702274 -0.540877 0
M  V30 4 O 2.69883 1.57094 -0.976944 0
M  V30 5 N 1.52352 1.04321 -0.896171 0
M  V30 6 C 1.57141 -0.180457 -0.409484 0
M  V30 7 N 2.91018 -0.403088 -0.177238 0
M  V30 8 C 0.604235 -1.23642 -0.105023 0
M  V30 9 C -0.80205 -0.917656 -0.124618 0
M  V30 10 C -1.36698 0.100935 -0.838325 0
M  V30 11 C -2.74913 0.355683 -0.791889 0
M  V30 12 C -3.5834 -0.412507 -0.0258299 0
M  V30 13 C -3.01186 -1.44098 0.693915 0
M  V30 14 C -1.66264 -1.69727 0.654991 0
M  V30 15 O -4.95415 -0.15772 0.018533 0
M  V30 16 C -5.37439 0.75586 1.03959 0
M  V30 17 F -6.72414 0.954906 1.02078 0
M  V30 18 F -4.69055 1.95476 0.834222 0
M  V30 19 F -4.99542 0.20325 2.24817 0
M  V30 20 N 0.953945 -1.69714 1.26223 0
M  V30 21 H 5.50559 2.88676 -0.143147 0
M  V30 22 H 4.68229 2.61103 -1.62969 0
M  V30 23 H 5.37675 0.819887 0.583932 0
M  V30 24 H 5.59105 0.186613 -1.12235 0
M  V30 25 H 0.79912 -2.14607 -0.748019 0
M  V30 26 H -0.832117 0.76632 -1.48307 0
M  V30 27 H -3.18461 1.17173 -1.36623 0
M  V30 28 H -3.67065 -2.06612 1.31341 0
M  V30 29 H -1.30964 -2.52568 1.25405 0
M  V30 30 H 0.715986 -2.70788 1.37133 0
M  V30 31 H 1.99347 -1.64617 1.34692 0
M  V30 END ATOM
M  V30 BEGIN BOND
M  V30 1 1 1 2
M  V30 2 1 2 3
M  V30 3 1 3 4
M  V30 4 1 4 5
M  V30 5 2 5 6
M  V30 6 1 6 7
M  V30 7 1 6 8
M  V30 8 1 8 9
M  V30 9 2 9 10
M  V30 10 1 10 11
M  V30 11 2 11 12
M  V30 12 1 12 13
M  V30 13 2 13 14
M  V30 14 1 12 15
M  V30 15 1 15 16
M  V30 16 1 16 17
M  V30 17 1 16 18
M  V30 18 1 16 19
M  V30 19 1 8 20
M  V30 20 2 7 3
M  V30 21 1 14 9
M  V30 22 1 1 21
M  V30 23 1 1 22
M  V30 24 1 2 23
M  V30 25 1 2 24
M  V30 26 1 8 25
M  V30 27 1 10 26
M  V30 28 1 11 27
M  V30 29 1 13 28
M  V30 30 1 14 29
M  V30 31 1 20 30
M  V30 32 1 20 31
M  V30 END BOND
M  V30 END CTAB
M  END
