
     RDKit          3D

  0  0  0  0  0  0  0  0  0  0999 V3000
M  V30 BEGIN CTAB
M  V30 COUNTS 27 28 0 0 0
M  V30 BEGIN ATOM
M  V30 1 N 4.55235 -1.02903 -1.21211 0
M  V30 2 C 3.56509 -0.56291 -0.82507 0
M  V30 3 C 2.32467 0.0103782 -0.357205 0
M  V30 4 C 1.98535 1.32648 -0.200081 0
M  V30 5 N 2.87274 2.41592 -0.497068 0
M  V30 6 N 0.739797 1.36207 0.2561 0
M  V30 7 N 0.245239 0.160656 0.406666 0
M  V30 8 C 1.19495 -0.7094 0.0376441 0
M  V30 9 N 1.1419 -2.12814 0.0213574 0
M  V30 10 C -1.08307 -0.131104 0.884806 0
M  V30 11 C -1.99201 -0.188496 -0.32204 0
M  V30 12 C -2.02977 1.12268 -1.11079 0
M  V30 13 C -3.23347 0.566508 -0.420236 0
M  V30 14 C -1.13576 -1.40609 1.69078 0
M  V30 15 H 3.42231 2.91237 0.234499 0
M  V30 16 H 2.98714 2.74061 -1.48164 0
M  V30 17 H 1.3382 -2.64066 0.893887 0
M  V30 18 H 0.911764 -2.64685 -0.843839 0
M  V30 19 H -1.38327 0.686729 1.57157 0
M  V30 20 H -1.89163 -1.13387 -0.899573 0
M  V30 21 H -1.89812 0.986088 -2.20155 0
M  V30 22 H -1.57724 2.02256 -0.692667 0
M  V30 23 H -4.00789 0.151553 -1.1222 0
M  V30 24 H -3.66486 1.18422 0.363133 0
M  V30 25 H -1.95537 -1.32329 2.4578 0
M  V30 26 H -0.193879 -1.4362 2.29662 0
M  V30 27 H -1.23515 -2.31279 1.07121 0
M  V30 END ATOM
M  V30 BEGIN BOND
M  V30 1 3 1 2
M  V30 2 1 2 3
M  V30 3 1 3 4
M  V30 4 1 4 5
M  V30 5 2 4 6
M  V30 6 1 6 7
M  V30 7 1 7 8
M  V30 8 1 8 9
M  V30 9 1 7 10
M  V30 10 1 10 11
M  V30 11 1 11 12
M  V30 12 1 12 13
M  V30 13 1 10 14
M  V30 14 2 8 3
M  V30 15 1 13 11
M  V30 16 1 5 15
M  V30 17 1 5 16
M  V30 18 1 9 17
M  V30 19 1 9 18
M  V30 20 1 10 19
M  V30 21 1 11 20
M  V30 22 1 12 21
M  V30 23 1 12 22
M  V30 24 1 13 23
M  V30 25 1 13 24
M  V30 26 1 14 25
M  V30 27 1 14 26
M  V30 28 1 14 27
M  V30 END BOND
M  V30 END CTAB
M  END
