
     RDKit          3D

  0  0  0  0  0  0  0  0  0  0999 V3000
M  V30 BEGIN CTAB
M  V30 COUNTS 38 40 0 0 0
M  V30 BEGIN ATOM
M  V30 1 C -2.64227 -1.22486 0.612335 0
M  V30 2 C -1.52044 -1.91969 -0.0796516 0
M  V30 3 C -0.848789 -1.24478 -1.18807 0
M  V30 4 C -0.0981238 0.0116331 -1.02085 0
M  V30 5 C -0.912415 1.16271 -0.577584 0
M  V30 6 C -2.07039 1.45888 -1.30032 0
M  V30 7 C -2.91217 2.49272 -0.957135 0
M  V30 8 C -2.64321 3.28326 0.121934 0
M  V30 9 C -1.52382 3.03212 0.854848 0
M  V30 10 C -0.672415 1.97581 0.494444 0
M  V30 11 O 0.472897 1.73012 1.23559 0
M  V30 12 C 1.34652 0.694805 0.889109 0
M  V30 13 C 1.13395 -0.1346 -0.188155 0
M  V30 14 C 2.06812 -1.10744 -0.438613 0
M  V30 15 N 1.98615 -2.00137 -1.54464 0
M  V30 16 C 3.21399 -1.29425 0.34823 0
M  V30 17 C 3.3776 -0.442647 1.41304 0
M  V30 18 N 2.46646 0.505461 1.65216 0
M  V30 19 N 4.53751 -0.626528 2.2178 0
M  V30 20 C 4.17551 -2.33571 0.049237 0
M  V30 21 N 4.93686 -3.1704 -0.197763 0
M  V30 22 O -3.49592 4.31177 0.452097 0
M  V30 23 H -2.35635 -0.387626 1.22053 0
M  V30 24 H -3.44278 -1.00675 -0.149709 0
M  V30 25 H -3.17756 -1.93246 1.32219 0
M  V30 26 H -0.776231 -2.33567 0.692605 0
M  V30 27 H -1.97436 -2.90812 -0.443968 0
M  V30 28 H -1.71814 -0.96857 -1.92957 0
M  V30 29 H -0.351588 -2.02864 -1.83609 0
M  V30 30 H 0.278792 0.295605 -2.04933 0
M  V30 31 H -2.33919 0.880252 -2.16786 0
M  V30 32 H -3.78946 2.66969 -1.55445 0
M  V30 33 H -1.24045 3.62298 1.73457 0
M  V30 34 H 1.84103 -3.00509 -1.40479 0
M  V30 35 H 2.07306 -1.64834 -2.52806 0
M  V30 36 H 4.73348 -1.48667 2.75986 0
M  V30 37 H 5.22993 0.153178 2.26252 0
M  V30 38 H -3.36579 4.92922 1.22353 0
M  V30 END ATOM
M  V30 BEGIN BOND
M  V30 1 1 1 2
M  V30 2 1 2 3
M  V30 3 1 3 4
M  V30 4 1 4 5
M  V30 5 2 5 6
M  V30 6 1 6 7
M  V30 7 2 7 8
M  V30 8 1 8 9
M  V30 9 2 9 10
M  V30 10 1 10 11
M  V30 11 1 11 12
M  V30 12 2 12 13
M  V30 13 1 13 14
M  V30 14 1 14 15
M  V30 15 2 14 16
M  V30 16 1 16 17
M  V30 17 2 17 18
M  V30 18 1 17 19
M  V30 19 1 16 20
M  V30 20 3 20 21
M  V30 21 1 8 22
M  V30 22 1 13 4
M  V30 23 1 10 5
M  V30 24 1 18 12
M  V30 25 1 1 23
M  V30 26 1 1 24
M  V30 27 1 1 25
M  V30 28 1 2 26
M  V30 29 1 2 27
M  V30 30 1 3 28
M  V30 31 1 3 29
M  V30 32 1 4 30
M  V30 33 1 6 31
M  V30 34 1 7 32
M  V30 35 1 9 33
M  V30 36 1 15 34
M  V30 37 1 15 35
M  V30 38 1 19 36
M  V30 39 1 19 37
M  V30 40 1 22 38
M  V30 END BOND
M  V30 END CTAB
M  END
