
     RDKit          3D

  0  0  0  0  0  0  0  0  0  0999 V3000
M  V30 BEGIN CTAB
M  V30 COUNTS 20 20 0 0 0
M  V30 BEGIN ATOM
M  V30 1 N -2.92016 -0.256409 1.13807 0
M  V30 2 C -1.57607 -0.334754 0.685159 0
M  V30 3 C -0.595459 -1.00068 1.39253 0
M  V30 4 C 0.709092 -1.06881 0.939741 0
M  V30 5 C 1.0966 -0.472291 -0.245939 0
M  V30 6 C 0.127912 0.196578 -0.963564 0
M  V30 7 C -1.17996 0.26383 -0.50783 0
M  V30 8 N -2.18368 0.950679 -1.24096 0
M  V30 9 Br 0.565816 1.0581 -2.6247 0
M  V30 10 O 2.3949 -0.541093 -0.694897 0
M  V30 11 C 3.4192 0.351766 -0.4167 0
M  V30 12 F 3.68531 0.442237 0.955098 0
M  V30 13 F 4.58623 -0.154859 -1.00326 0
M  V30 14 F 3.24947 1.61715 -0.872731 0
M  V30 15 H -3.66878 -0.905249 0.826148 0
M  V30 16 H -3.16968 0.488831 1.81748 0
M  V30 17 H -0.879499 -1.47888 2.33141 0
M  V30 18 H 1.48355 -1.58916 1.48888 0
M  V30 19 H -2.93079 1.45477 -0.722876 0
M  V30 20 H -2.21402 0.978249 -2.28107 0
M  V30 END ATOM
M  V30 BEGIN BOND
M  V30 1 1 1 2
M  V30 2 2 2 3
M  V30 3 1 3 4
M  V30 4 2 4 5
M  V30 5 1 5 6
M  V30 6 2 6 7
M  V30 7 1 7 8
M  V30 8 1 6 9
M  V30 9 1 5 10
M  V30 10 1 10 11
M  V30 11 1 11 12
M  V30 12 1 11 13
M  V30 13 1 11 14
M  V30 14 1 7 2
M  V30 15 1 1 15
M  V30 16 1 1 16
M  V30 17 1 3 17
M  V30 18 1 4 18
M  V30 19 1 8 19
M  V30 20 1 8 20
M  V30 END BOND
M  V30 END CTAB
M  END
