
     RDKit          3D

  0  0  0  0  0  0  0  0  0  0999 V3000
M  V30 BEGIN CTAB
M  V30 COUNTS 27 27 0 0 0
M  V30 BEGIN ATOM
M  V30 1 C -3.55177 0.623261 -0.061162 0
M  V30 2 C -2.43446 -0.413737 0.0821748 0
M  V30 3 C -1.14153 0.328994 -0.159509 0
M  V30 4 C 0.0640218 -0.566126 -0.0518323 0
M  V30 5 C 1.29591 0.214129 -0.297433 0
M  V30 6 C 1.26061 1.58067 -0.582431 0
M  V30 7 N 2.38835 2.28235 -0.804637 0
M  V30 8 C 3.57562 1.69754 -0.760284 0
M  V30 9 C 3.66035 0.349084 -0.482363 0
M  V30 10 C 2.53205 -0.395125 -0.251175 0
M  V30 11 N 2.59306 -1.77891 0.0357428 0
M  V30 12 N -2.6034 -1.48614 -0.856599 0
M  V30 13 H -3.31486 1.48461 0.594108 0
M  V30 14 H -4.53547 0.183497 0.112989 0
M  V30 15 H -3.5363 0.954593 -1.13188 0
M  V30 16 H -2.39223 -0.816277 1.10716 0
M  V30 17 H -1.1499 0.735235 -1.20015 0
M  V30 18 H -1.08508 1.14982 0.583734 0
M  V30 19 H 0.0545081 -1.05818 0.936793 0
M  V30 20 H -0.0604419 -1.40029 -0.79787 0
M  V30 21 H 0.276679 2.06464 -0.619061 0
M  V30 22 H 4.46424 2.30857 -0.947597 0
M  V30 23 H 4.66828 -0.0934231 -0.456058 0
M  V30 24 H 3.24744 -2.07935 0.80019 0
M  V30 25 H 2.03279 -2.50322 -0.462642 0
M  V30 26 H -3.01783 -1.18002 -1.77386 0
M  V30 27 H -3.29064 -2.18617 -0.467789 0
M  V30 END ATOM
M  V30 BEGIN BOND
M  V30 1 1 1 2
M  V30 2 1 2 3
M  V30 3 1 3 4
M  V30 4 1 4 5
M  V30 5 2 5 6
M  V30 6 1 6 7
M  V30 7 2 7 8
M  V30 8 1 8 9
M  V30 9 2 9 10
M  V30 10 1 10 11
M  V30 11 1 2 12
M  V30 12 1 10 5
M  V30 13 1 1 13
M  V30 14 1 1 14
M  V30 15 1 1 15
M  V30 16 1 2 16
M  V30 17 1 3 17
M  V30 18 1 3 18
M  V30 19 1 4 19
M  V30 20 1 4 20
M  V30 21 1 6 21
M  V30 22 1 8 22
M  V30 23 1 9 23
M  V30 24 1 11 24
M  V30 25 1 11 25
M  V30 26 1 12 26
M  V30 27 1 12 27
M  V30 END BOND
M  V30 END CTAB
M  END
