
     RDKit          3D

  0  0  0  0  0  0  0  0  0  0999 V3000
M  V30 BEGIN CTAB
M  V30 COUNTS 49 50 0 0 0
M  V30 BEGIN ATOM
M  V30 1 O -6.5226 1.70524 0.607383 0
M  V30 2 C -5.26735 1.78565 0.621527 0
M  V30 3 C -4.55285 0.679214 -0.175347 0
M  V30 4 O -3.22863 0.905246 -0.0617932 0
M  V30 5 C -2.3755 -0.161308 -0.217317 0 CFG=1
M  V30 6 O -1.11336 0.242991 0.239351 0
M  V30 7 C 0.0860537 0.159443 -0.432665 0
M  V30 8 C 0.24321 -0.352982 -1.70087 0
M  V30 9 C 1.51745 -0.38502 -2.28148 0
M  V30 10 C 2.61512 0.0943276 -1.58877 0
M  V30 11 C 2.47833 0.613257 -0.31356 0
M  V30 12 C 1.21017 0.629857 0.228454 0
M  V30 13 N 1.08124 1.15817 1.52211 0
M  V30 14 C 3.63929 1.12259 0.423518 0
M  V30 15 O 3.42378 1.57549 1.57667 0
M  V30 16 C 4.99938 1.12838 -0.105772 0
M  V30 17 C 5.83337 -0.0696602 0.244958 0
M  V30 18 C 6.04322 -0.293939 1.66964 0
M  V30 19 O 5.13381 -0.524877 2.50843 0
M  V30 20 O 7.33632 -0.259453 2.19092 0
M  V30 21 N 7.13618 0.110075 -0.399233 0
M  V30 22 C -2.79783 -1.30676 0.717366 0
M  V30 23 C -4.13357 -1.77381 0.175498 0 CFG=1
M  V30 24 C -5.08434 -0.611742 0.290606 0 CFG=2
M  V30 25 O -6.24951 -0.961166 -0.39567 0
M  V30 26 O -3.99179 -2.10385 -1.17562 0
M  V30 27 O -1.85748 -2.32528 0.652768 0
M  V30 28 H -7.10509 1.47718 0.110198 0
M  V30 29 H -4.82674 1.79478 1.66234 0
M  V30 30 H -4.97154 2.79154 0.20018 0
M  V30 31 H -4.90749 0.840077 -1.23594 0
M  V30 32 H -2.32626 -0.568626 -1.22228 0
M  V30 33 H -0.608571 -0.724008 -2.23611 0
M  V30 34 H 1.64848 -0.784048 -3.27285 0
M  V30 35 H 3.57125 0.0433715 -2.08697 0
M  V30 36 H 1.27656 0.598639 2.37106 0
M  V30 37 H 0.779816 2.14445 1.64077 0
M  V30 38 H 4.9612 1.23958 -1.21152 0
M  V30 39 H 5.58364 2.02913 0.235913 0
M  V30 40 H 5.36392 -0.941224 -0.265571 0
M  V30 41 H 7.84849 -1.1238 2.39722 0
M  V30 42 H 7.72647 0.608735 0.331429 0
M  V30 43 H 7.05381 0.740236 -1.24688 0
M  V30 44 H -2.92922 -0.893401 1.73704 0
M  V30 45 H -4.55653 -2.61903 0.749849 0
M  V30 46 H -5.37052 -0.559182 1.38206 0
M  V30 47 H -6.72162 -1.71604 0.0522447 0
M  V30 48 H -4.8622 -1.95354 -1.64827 0
M  V30 49 H -2.22994 -3.2049 0.875287 0
M  V30 END ATOM
M  V30 BEGIN BOND
M  V30 1 1 1 2
M  V30 2 1 2 3
M  V30 3 1 3 4
M  V30 4 1 4 5
M  V30 5 1 5 6
M  V30 6 1 6 7
M  V30 7 2 7 8
M  V30 8 1 8 9
M  V30 9 2 9 10
M  V30 10 1 10 11
M  V30 11 2 11 12
M  V30 12 1 12 13
M  V30 13 1 11 14
M  V30 14 2 14 15
M  V30 15 1 14 16
M  V30 16 1 16 17
M  V30 17 1 17 18
M  V30 18 2 18 19
M  V30 19 1 18 20
M  V30 20 1 17 21
M  V30 21 1 5 22
M  V30 22 1 22 23
M  V30 23 1 23 24
M  V30 24 1 24 25
M  V30 25 1 23 26
M  V30 26 1 22 27
M  V30 27 1 24 3
M  V30 28 1 12 7
M  V30 29 1 1 28
M  V30 30 1 2 29
M  V30 31 1 2 30
M  V30 32 1 3 31
M  V30 33 1 5 32 CFG=3
M  V30 34 1 8 33
M  V30 35 1 9 34
M  V30 36 1 10 35
M  V30 37 1 13 36
M  V30 38 1 13 37
M  V30 39 1 16 38
M  V30 40 1 16 39
M  V30 41 1 17 40
M  V30 42 1 20 41
M  V30 43 1 21 42
M  V30 44 1 21 43
M  V30 45 1 22 44
M  V30 46 1 23 45 CFG=1
M  V30 47 1 24 46 CFG=1
M  V30 48 1 25 47
M  V30 49 1 26 48
M  V30 50 1 27 49
M  V30 END BOND
M  V30 END CTAB
M  END
