
     RDKit          3D

  0  0  0  0  0  0  0  0  0  0999 V3000
M  V30 BEGIN CTAB
M  V30 COUNTS 32 33 0 0 0
M  V30 BEGIN ATOM
M  V30 1 C 5.85759 0.584134 -0.898036 0
M  V30 2 C 5.47607 -0.605514 -0.0807575 0
M  V30 3 O 4.13265 -0.974458 -0.179754 0
M  V30 4 C 3.06599 -0.156574 0.163212 0
M  V30 5 O 3.33874 0.993038 0.591155 0
M  V30 6 C 1.69615 -0.635351 0.0233603 0
M  V30 7 C 0.536485 0.0383258 0.314459 0
M  V30 8 N 0.438405 1.37539 0.824944 0
M  V30 9 N -0.501856 -0.770403 0.0392082 0
M  V30 10 N -0.0264073 -1.92455 -0.413363 0
M  V30 11 C 1.31783 -1.87772 -0.436627 0
M  V30 12 C -1.89857 -0.457555 0.200561 0
M  V30 13 N -2.73323 -1.32517 0.809547 0
M  V30 14 N -3.99835 -1.02667 0.948309 0
M  V30 15 C -4.5669 0.115142 0.520883 0
M  V30 16 N -5.96558 0.319385 0.735446 0
M  V30 17 N -6.91481 -0.0903677 -0.212216 0
M  V30 18 C -3.76452 1.04137 -0.109347 0
M  V30 19 C -2.429 0.730481 -0.257883 0
M  V30 20 H 6.94711 0.471206 -1.16946 0
M  V30 21 H 5.82624 1.54829 -0.319347 0
M  V30 22 H 5.32119 0.654609 -1.85944 0
M  V30 23 H 6.08028 -1.4799 -0.44302 0
M  V30 24 H 5.80973 -0.434715 0.963087 0
M  V30 25 H 0.473168 1.47746 1.85802 0
M  V30 26 H 0.340611 2.14548 0.147502 0
M  V30 27 H 2.00004 -2.67746 -0.761 0
M  V30 28 H -6.28464 0.778784 1.60746 0
M  V30 29 H -6.67597 0.217365 -1.18023 0
M  V30 30 H -6.9235 -1.15143 -0.226062 0
M  V30 31 H -4.20749 1.96539 -0.459089 0
M  V30 32 H -1.76742 1.4202 -0.741531 0
M  V30 END ATOM
M  V30 BEGIN BOND
M  V30 1 1 1 2
M  V30 2 1 2 3
M  V30 3 1 3 4
M  V30 4 2 4 5
M  V30 5 1 4 6
M  V30 6 2 6 7
M  V30 7 1 7 8
M  V30 8 1 7 9
M  V30 9 1 9 10
M  V30 10 2 10 11
M  V30 11 1 9 12
M  V30 12 2 12 13
M  V30 13 1 13 14
M  V30 14 2 14 15
M  V30 15 1 15 16
M  V30 16 1 16 17
M  V30 17 1 15 18
M  V30 18 2 18 19
M  V30 19 1 11 6
M  V30 20 1 19 12
M  V30 21 1 1 20
M  V30 22 1 1 21
M  V30 23 1 1 22
M  V30 24 1 2 23
M  V30 25 1 2 24
M  V30 26 1 8 25
M  V30 27 1 8 26
M  V30 28 1 11 27
M  V30 29 1 16 28
M  V30 30 1 17 29
M  V30 31 1 17 30
M  V30 32 1 18 31
M  V30 33 1 19 32
M  V30 END BOND
M  V30 END CTAB
M  END
