
     RDKit          3D

  0  0  0  0  0  0  0  0  0  0999 V3000
M  V30 BEGIN CTAB
M  V30 COUNTS 17 16 0 0 0
M  V30 BEGIN ATOM
M  V30 1 C 3.47092 0.385736 -0.327222 0
M  V30 2 S 2.32063 -0.0818959 -1.63237 0
M  V30 3 S 0.369999 0.496313 -1.04307 0
M  V30 4 C -0.460473 -0.783856 -0.142507 0
M  V30 5 N -1.63836 -0.590178 0.279611 0
M  V30 6 C -2.27387 0.648591 0.0246376 0
M  V30 7 N -1.7934 1.76137 0.44914 0
M  V30 8 N -3.48834 0.62299 -0.733206 0
M  V30 9 N 0.211541 -1.99975 0.0871641 0
M  V30 10 H 4.19079 -0.416166 -0.0705796 0
M  V30 11 H 2.92499 0.631117 0.620415 0
M  V30 12 H 3.99385 1.32192 -0.649964 0
M  V30 13 H -0.911281 1.75888 0.997197 0
M  V30 14 H -3.53322 0.417865 -1.74431 0
M  V30 15 H -4.36808 0.828719 -0.202357 0
M  V30 16 H -0.283852 -2.9192 0.235834 0
M  V30 17 H 1.26817 -2.08245 0.127983 0
M  V30 END ATOM
M  V30 BEGIN BOND
M  V30 1 1 1 2
M  V30 2 1 2 3
M  V30 3 1 3 4
M  V30 4 2 4 5 CFG=2
M  V30 5 1 5 6
M  V30 6 2 6 7 CFG=2
M  V30 7 1 6 8
M  V30 8 1 4 9
M  V30 9 1 1 10
M  V30 10 1 1 11
M  V30 11 1 1 12
M  V30 12 1 7 13
M  V30 13 1 8 14
M  V30 14 1 8 15
M  V30 15 1 9 16
M  V30 16 1 9 17
M  V30 END BOND
M  V30 END CTAB
M  END
