
     RDKit          3D

  0  0  0  0  0  0  0  0  0  0999 V3000
M  V30 BEGIN CTAB
M  V30 COUNTS 28 28 0 0 0
M  V30 BEGIN ATOM
M  V30 1 C -2.49896 1.68826 -0.675956 0
M  V30 2 C -2.56255 0.194331 -0.499768 0
M  V30 3 C -2.86401 -0.196195 0.898291 0
M  V30 4 C -2.82779 -1.45963 1.24402 0
M  V30 5 N -1.3465 -0.389256 -0.982313 0
M  V30 6 C -0.0469527 -0.173292 -0.491556 0
M  V30 7 C 0.175746 0.652279 0.580448 0
M  V30 8 C 1.47185 0.865352 1.07561 0
M  V30 9 C 2.55082 0.246363 0.49174 0
M  V30 10 C 2.30413 -0.586503 -0.593517 0
M  V30 11 C 1.04235 -0.803264 -1.08729 0
M  V30 12 F 0.840258 -1.63541 -2.16373 0
M  V30 13 N 3.42975 -1.20704 -1.17102 0
M  V30 14 N 3.85685 0.462827 0.992907 0
M  V30 15 H -1.48798 1.94835 -1.04743 0
M  V30 16 H -2.60143 2.23033 0.289474 0
M  V30 17 H -3.2803 1.98489 -1.40249 0
M  V30 18 H -3.39999 -0.176601 -1.17334 0
M  V30 19 H -3.1091 0.5614 1.61344 0
M  V30 20 H -2.585 -2.27153 0.559677 0
M  V30 21 H -3.0452 -1.78373 2.26891 0
M  V30 22 H -1.42967 -1.05751 -1.79719 0
M  V30 23 H -0.613331 1.17615 1.09889 0
M  V30 24 H 1.65771 1.51453 1.92039 0
M  V30 25 H 4.15513 -1.60542 -0.540933 0
M  V30 26 H 3.54624 -1.2727 -2.18345 0
M  V30 27 H 4.14269 0.0798775 1.90842 0
M  V30 28 H 4.52525 1.01312 0.426381 0
M  V30 END ATOM
M  V30 BEGIN BOND
M  V30 1 1 1 2
M  V30 2 1 2 3
M  V30 3 2 3 4 CFG=2
M  V30 4 1 2 5
M  V30 5 1 5 6
M  V30 6 2 6 7
M  V30 7 1 7 8
M  V30 8 2 8 9
M  V30 9 1 9 10
M  V30 10 2 10 11
M  V30 11 1 11 12
M  V30 12 1 10 13
M  V30 13 1 9 14
M  V30 14 1 11 6
M  V30 15 1 1 15
M  V30 16 1 1 16
M  V30 17 1 1 17
M  V30 18 1 2 18
M  V30 19 1 3 19
M  V30 20 1 4 20
M  V30 21 1 4 21
M  V30 22 1 5 22
M  V30 23 1 7 23
M  V30 24 1 8 24
M  V30 25 1 13 25
M  V30 26 1 13 26
M  V30 27 1 14 27
M  V30 28 1 14 28
M  V30 END BOND
M  V30 END CTAB
M  END
