
     RDKit          3D

  0  0  0  0  0  0  0  0  0  0999 V3000
M  V30 BEGIN CTAB
M  V30 COUNTS 37 38 0 0 0
M  V30 BEGIN ATOM
M  V30 1 N -4.38759 2.40009 0.356083 0
M  V30 2 C -3.62331 1.58874 -0.561847 0
M  V30 3 C -2.46856 1.00037 0.217497 0
M  V30 4 N -1.6206 0.169856 -0.56729 0
M  V30 5 C -2.17475 -1.05522 -1.02309 0
M  V30 6 C -1.74188 -2.28258 -0.304708 0
M  V30 7 C -0.313258 -2.65159 -0.421138 0
M  V30 8 O 0.481434 -1.87116 -1.20791 0
M  V30 9 C 0.623928 -0.554696 -0.816319 0 CFG=1
M  V30 10 C -0.410253 -0.096162 0.176881 0
M  V30 11 C 1.95693 -0.197493 -0.31612 0
M  V30 12 C 2.52001 0.992642 -0.724465 0
M  V30 13 C 3.78987 1.37849 -0.280435 0
M  V30 14 C 4.49812 0.567474 0.576402 0
M  V30 15 N 3.93562 -0.584216 0.962149 0
M  V30 16 C 2.70148 -0.975697 0.540518 0
M  V30 17 N 5.77595 0.993754 0.999088 0
M  V30 18 H -4.41016 1.90349 1.26874 0
M  V30 19 H -3.92393 3.32104 0.435175 0
M  V30 20 H -4.31195 0.801942 -0.938459 0
M  V30 21 H -3.20521 2.21498 -1.36385 0
M  V30 22 H -1.84852 1.88283 0.546488 0
M  V30 23 H -2.78303 0.4946 1.14528 0
M  V30 24 H -3.2977 -0.999766 -0.912232 0
M  V30 25 H -2.02724 -1.19146 -2.13357 0
M  V30 26 H -2.43807 -3.10688 -0.642994 0
M  V30 27 H -2.0175 -2.16506 0.785362 0
M  V30 28 H -0.277003 -3.68634 -0.878668 0
M  V30 29 H 0.125996 -2.8267 0.603834 0
M  V30 30 H 0.43718 0.0491576 -1.75348 0
M  V30 31 H -0.0584004 0.869487 0.587993 0
M  V30 32 H -0.542622 -0.776408 1.02173 0
M  V30 33 H 2.02672 1.68215 -1.39489 0
M  V30 34 H 4.20315 2.31554 -0.617576 0
M  V30 35 H 2.30875 -1.90458 0.882992 0
M  V30 36 H 5.89089 1.50341 1.89067 0
M  V30 37 H 6.6055 0.79598 0.414634 0
M  V30 END ATOM
M  V30 BEGIN BOND
M  V30 1 1 1 2
M  V30 2 1 2 3
M  V30 3 1 3 4
M  V30 4 1 4 5
M  V30 5 1 5 6
M  V30 6 1 6 7
M  V30 7 1 7 8
M  V30 8 1 8 9
M  V30 9 1 9 10
M  V30 10 1 9 11
M  V30 11 2 11 12
M  V30 12 1 12 13
M  V30 13 2 13 14
M  V30 14 1 14 15
M  V30 15 2 15 16
M  V30 16 1 14 17
M  V30 17 1 10 4
M  V30 18 1 16 11
M  V30 19 1 1 18
M  V30 20 1 1 19
M  V30 21 1 2 20
M  V30 22 1 2 21
M  V30 23 1 3 22
M  V30 24 1 3 23
M  V30 25 1 5 24
M  V30 26 1 5 25
M  V30 27 1 6 26
M  V30 28 1 6 27
M  V30 29 1 7 28
M  V30 30 1 7 29
M  V30 31 1 9 30 CFG=3
M  V30 32 1 10 31
M  V30 33 1 10 32
M  V30 34 1 12 33
M  V30 35 1 13 34
M  V30 36 1 16 35
M  V30 37 1 17 36
M  V30 38 1 17 37
M  V30 END BOND
M  V30 END CTAB
M  END
