
     RDKit          3D

  0  0  0  0  0  0  0  0  0  0999 V3000
M  V30 BEGIN CTAB
M  V30 COUNTS 21 21 0 0 0
M  V30 BEGIN ATOM
M  V30 1 F -3.3484 -1.14778 -0.978082 0
M  V30 2 C -2.63814 -0.013218 -0.570543 0
M  V30 3 O -1.74514 -0.334401 0.473977 0
M  V30 4 C -0.367564 -0.214155 0.292062 0
M  V30 5 C 0.300545 -1.34147 -0.195241 0
M  V30 6 N -0.391926 -2.54275 -0.487774 0
M  V30 7 C 1.67107 -1.22133 -0.376051 0
M  V30 8 C 2.33462 -0.0449227 -0.0871942 0
M  V30 9 C 1.6399 1.04588 0.392115 0
M  V30 10 C 0.276978 0.958223 0.582628 0
M  V30 11 N -0.483908 2.05315 1.07399 0
M  V30 12 O 2.29113 2.25719 0.694711 0
M  V30 13 F -3.5745 0.919059 -0.203162 0
M  V30 14 H -2.09775 0.326977 -1.49562 0
M  V30 15 H -1.13106 -2.88748 0.141379 0
M  V30 16 H -0.160474 -3.08814 -1.34087 0
M  V30 17 H 2.2167 -2.08419 -0.754554 0
M  V30 18 H 3.41698 0.0539214 -0.228655 0
M  V30 19 H -1.41352 1.92222 1.50842 0
M  V30 20 H -0.0825038 3.02201 0.989472 0
M  V30 21 H 3.28697 2.36119 0.56899 0
M  V30 END ATOM
M  V30 BEGIN BOND
M  V30 1 1 1 2
M  V30 2 1 2 3
M  V30 3 1 3 4
M  V30 4 2 4 5
M  V30 5 1 5 6
M  V30 6 1 5 7
M  V30 7 2 7 8
M  V30 8 1 8 9
M  V30 9 2 9 10
M  V30 10 1 10 11
M  V30 11 1 9 12
M  V30 12 1 2 13
M  V30 13 1 10 4
M  V30 14 1 2 14
M  V30 15 1 6 15
M  V30 16 1 6 16
M  V30 17 1 7 17
M  V30 18 1 8 18
M  V30 19 1 11 19
M  V30 20 1 11 20
M  V30 21 1 12 21
M  V30 END BOND
M  V30 END CTAB
M  END
