
     RDKit          3D

  0  0  0  0  0  0  0  0  0  0999 V3000
M  V30 BEGIN CTAB
M  V30 COUNTS 20 21 0 0 0
M  V30 BEGIN ATOM
M  V30 1 N -2.2209 -1.64987 -1.87132 0
M  V30 2 C -1.38163 -0.810341 -1.07038 0
M  V30 3 N -1.8848 0.418676 -0.791479 0
M  V30 4 C -1.19067 1.29599 -0.0488368 0
M  V30 5 N -1.69515 2.59188 0.258669 0
M  V30 6 C 0.0537594 0.894815 0.417554 0
M  V30 7 C 0.559806 -0.365091 0.126607 0
M  V30 8 N -0.17794 -1.21704 -0.62743 0
M  V30 9 N 1.76977 -0.485989 0.698062 0
M  V30 10 C 2.62898 -1.66559 0.624561 0
M  V30 11 N 2.00565 0.656945 1.32063 0
M  V30 12 C 0.995696 1.51509 1.17547 0
M  V30 13 H -2.76061 -2.44359 -1.49397 0
M  V30 14 H -2.28017 -1.43559 -2.88962 0
M  V30 15 H -2.44822 2.73647 0.96494 0
M  V30 16 H -1.31704 3.43019 -0.221784 0
M  V30 17 H 3.07843 -1.7838 -0.378874 0
M  V30 18 H 1.99655 -2.55783 0.805088 0
M  V30 19 H 3.385 -1.65572 1.43965 0
M  V30 20 H 0.883476 2.53038 1.56244 0
M  V30 END ATOM
M  V30 BEGIN BOND
M  V30 1 1 1 2
M  V30 2 2 2 3
M  V30 3 1 3 4
M  V30 4 1 4 5
M  V30 5 2 4 6
M  V30 6 1 6 7
M  V30 7 2 7 8
M  V30 8 1 7 9
M  V30 9 1 9 10
M  V30 10 1 9 11
M  V30 11 2 11 12
M  V30 12 1 8 2
M  V30 13 1 12 6
M  V30 14 1 1 13
M  V30 15 1 1 14
M  V30 16 1 5 15
M  V30 17 1 5 16
M  V30 18 1 10 17
M  V30 19 1 10 18
M  V30 20 1 10 19
M  V30 21 1 12 20
M  V30 END BOND
M  V30 END CTAB
M  END
