
     RDKit          3D

  0  0  0  0  0  0  0  0  0  0999 V3000
M  V30 BEGIN CTAB
M  V30 COUNTS 31 32 0 0 0
M  V30 BEGIN ATOM
M  V30 1 N 0.577933 1.49038 -0.625446 0
M  V30 2 C 0.239723 0.32161 0.183887 0
M  V30 3 C -1.06591 -0.1949 -0.0362193 0
M  V30 4 C -2.14898 0.673881 0.128183 0
M  V30 5 C -1.86915 2.05697 0.518189 0
M  V30 6 C -3.44046 0.227962 -0.0756924 0
M  V30 7 C -3.70257 -1.07143 -0.44346 0
M  V30 8 N -2.65955 -1.8948 -0.59832 0
M  V30 9 C -1.37639 -1.4565 -0.397107 0
M  V30 10 N -0.397044 -2.42402 -0.602243 0
M  V30 11 C 1.45201 -0.517449 0.189352 0
M  V30 12 C 2.61231 0.316148 0.813615 0
M  V30 13 C 3.52019 -0.505935 -0.0755949 0
M  V30 14 C 2.3207 -0.539984 -1.03151 0
M  V30 15 H 0.739104 2.3361 -0.0824635 0
M  V30 16 H 0.0754256 1.55505 -1.50706 0
M  V30 17 H 0.232242 0.759044 1.24535 0
M  V30 18 H -2.84586 2.48448 0.916777 0
M  V30 19 H -1.17679 2.20041 1.35307 0
M  V30 20 H -1.66818 2.73028 -0.348582 0
M  V30 21 H -4.27715 0.919593 0.0568169 0
M  V30 22 H -4.73839 -1.4158 -0.603617 0
M  V30 23 H 0.0463697 -2.56956 -1.55367 0
M  V30 24 H -0.017313 -3.09299 0.130573 0
M  V30 25 H 1.48155 -1.43236 0.816696 0
M  V30 26 H 2.72045 0.214877 1.88706 0
M  V30 27 H 2.61001 1.36255 0.495029 0
M  V30 28 H 3.73076 -1.48749 0.392439 0
M  V30 29 H 4.39798 0.0309515 -0.475099 0
M  V30 30 H 2.36689 -1.45567 -1.61281 0
M  V30 31 H 2.26009 0.378596 -1.60168 0
M  V30 END ATOM
M  V30 BEGIN BOND
M  V30 1 1 1 2
M  V30 2 1 2 3
M  V30 3 2 3 4
M  V30 4 1 4 5
M  V30 5 1 4 6
M  V30 6 2 6 7
M  V30 7 1 7 8
M  V30 8 2 8 9
M  V30 9 1 9 10
M  V30 10 1 2 11
M  V30 11 1 11 12
M  V30 12 1 12 13
M  V30 13 1 13 14
M  V30 14 1 9 3
M  V30 15 1 14 11
M  V30 16 1 1 15
M  V30 17 1 1 16
M  V30 18 1 2 17
M  V30 19 1 5 18
M  V30 20 1 5 19
M  V30 21 1 5 20
M  V30 22 1 6 21
M  V30 23 1 7 22
M  V30 24 1 10 23
M  V30 25 1 10 24
M  V30 26 1 11 25
M  V30 27 1 12 26
M  V30 28 1 12 27
M  V30 29 1 13 28
M  V30 30 1 13 29
M  V30 31 1 14 30
M  V30 32 1 14 31
M  V30 END BOND
M  V30 END CTAB
M  END
