
     RDKit          3D

  0  0  0  0  0  0  0  0  0  0999 V3000
M  V30 BEGIN CTAB
M  V30 COUNTS 18 18 0 0 0
M  V30 BEGIN ATOM
M  V30 1 N -3.00802 0.528702 0.202022 0
M  V30 2 C -2.21885 -0.526688 -0.271819 0
M  V30 3 S -2.92849 -1.78984 -0.997135 0
M  V30 4 C -0.779917 -0.505238 -0.12305 0
M  V30 5 C -0.0118446 -1.658 -0.108263 0
M  V30 6 C 1.35332 -1.65982 0.0315735 0
M  V30 7 C 2.02116 -0.460462 0.166567 0
M  V30 8 C 1.29921 0.722009 0.158161 0
M  V30 9 C -0.0714306 0.685578 0.01564 0
M  V30 10 N 1.98836 1.96898 0.298013 0
M  V30 11 Cl 3.76973 -0.383979 0.350057 0
M  V30 12 H -3.06234 1.40465 -0.344693 0
M  V30 13 H -3.53882 0.457067 1.0843 0
M  V30 14 H -0.527735 -2.61278 -0.214107 0
M  V30 15 H 1.9131 -2.60837 0.0363287 0
M  V30 16 H -0.642736 1.60422 0.00805886 0
M  V30 17 H 1.44125 2.85006 0.202253 0
M  V30 18 H 3.00405 1.98392 0.489254 0
M  V30 END ATOM
M  V30 BEGIN BOND
M  V30 1 1 1 2
M  V30 2 2 2 3
M  V30 3 1 2 4
M  V30 4 2 4 5
M  V30 5 1 5 6
M  V30 6 2 6 7
M  V30 7 1 7 8
M  V30 8 2 8 9
M  V30 9 1 8 10
M  V30 10 1 7 11
M  V30 11 1 9 4
M  V30 12 1 1 12
M  V30 13 1 1 13
M  V30 14 1 5 14
M  V30 15 1 6 15
M  V30 16 1 9 16
M  V30 17 1 10 17
M  V30 18 1 10 18
M  V30 END BOND
M  V30 END CTAB
M  END
