
     RDKit          3D

  0  0  0  0  0  0  0  0  0  0999 V3000
M  V30 BEGIN CTAB
M  V30 COUNTS 28 28 0 0 0
M  V30 BEGIN ATOM
M  V30 1 N -0.604552 2.47098 0.461948 0
M  V30 2 N -1.29786 1.28303 0.664731 0
M  V30 3 C -0.784421 0.197759 -0.165973 0
M  V30 4 C 0.611643 -0.0985153 0.0908467 0
M  V30 5 C 1.10023 -0.757881 1.19465 0
M  V30 6 C 2.44911 -0.99128 1.41815 0
M  V30 7 C 3.38022 -0.553825 0.507803 0
M  V30 8 C 2.93688 0.108828 -0.607797 0
M  V30 9 C 1.59886 0.329164 -0.809816 0
M  V30 10 N 1.17452 1.01514 -1.96935 0
M  V30 11 C -1.75159 -0.910632 -0.0512318 0
M  V30 12 C -1.48486 -2.16273 0.142655 0
M  V30 13 C -3.21742 -0.530384 -0.220416 0
M  V30 14 H -0.845877 2.85762 -0.474632 0
M  V30 15 H -0.924239 3.14551 1.17834 0
M  V30 16 H -1.39144 1.0134 1.66162 0
M  V30 17 H -0.866819 0.614947 -1.22114 0
M  V30 18 H 0.375242 -1.10421 1.92436 0
M  V30 19 H 2.79557 -1.51076 2.29287 0
M  V30 20 H 4.43233 -0.718831 0.651802 0
M  V30 21 H 3.68109 0.45756 -1.33358 0
M  V30 22 H 1.42034 2.02205 -2.1418 0
M  V30 23 H 0.599579 0.524075 -2.68651 0
M  V30 24 H -0.491158 -2.53711 0.242449 0
M  V30 25 H -2.28237 -2.89097 0.212078 0
M  V30 26 H -3.59189 -0.00569426 0.668054 0
M  V30 27 H -3.80385 -1.41488 -0.511996 0
M  V30 28 H -3.21726 0.147635 -1.11812 0
M  V30 END ATOM
M  V30 BEGIN BOND
M  V30 1 1 1 2
M  V30 2 1 2 3
M  V30 3 1 3 4
M  V30 4 2 4 5
M  V30 5 1 5 6
M  V30 6 2 6 7
M  V30 7 1 7 8
M  V30 8 2 8 9
M  V30 9 1 9 10
M  V30 10 1 3 11
M  V30 11 2 11 12 CFG=2
M  V30 12 1 11 13
M  V30 13 1 9 4
M  V30 14 1 1 14
M  V30 15 1 1 15
M  V30 16 1 2 16
M  V30 17 1 3 17
M  V30 18 1 5 18
M  V30 19 1 6 19
M  V30 20 1 7 20
M  V30 21 1 8 21
M  V30 22 1 10 22
M  V30 23 1 10 23
M  V30 24 1 12 24
M  V30 25 1 12 25
M  V30 26 1 13 26
M  V30 27 1 13 27
M  V30 28 1 13 28
M  V30 END BOND
M  V30 END CTAB
M  END
