
     RDKit          3D

  0  0  0  0  0  0  0  0  0  0999 V3000
M  V30 BEGIN CTAB
M  V30 COUNTS 27 26 0 0 0
M  V30 BEGIN ATOM
M  V30 1 C -3.84633 0.816637 0.442739 0
M  V30 2 C -2.79938 -0.0507796 -0.228903 0
M  V30 3 C -1.45108 0.458416 0.272545 0
M  V30 4 C -0.304268 -0.333412 -0.330203 0
M  V30 5 N -0.378961 -1.73394 -6.50717e-05 0
M  V30 6 C 0.967223 0.246524 0.242932 0
M  V30 7 C 2.20394 -0.452542 -0.275201 0
M  V30 8 N 2.21547 -0.291901 -1.73594 0
M  V30 9 C 3.37182 0.210941 0.320183 0
M  V30 10 O 3.52487 0.163494 1.6784 0
M  V30 11 O 4.19974 0.799935 -0.387815 0
M  V30 12 H -4.80983 0.273795 0.506084 0
M  V30 13 H -3.9265 1.74203 -0.196918 0
M  V30 14 H -3.47024 1.09474 1.44451 0
M  V30 15 H -2.95108 -1.07583 0.140358 0
M  V30 16 H -2.87385 0.006302 -1.32654 0
M  V30 17 H -1.46378 0.394402 1.37357 0
M  V30 18 H -1.29936 1.52028 0.00771934 0
M  V30 19 H -0.321232 -0.239826 -1.43485 0
M  V30 20 H 0.024104 -2.35384 -0.733991 0
M  V30 21 H 0.174943 -1.93569 0.885724 0
M  V30 22 H 0.923912 0.165817 1.34174 0
M  V30 23 H 1.07465 1.31988 -0.0175607 0
M  V30 24 H 2.16987 -1.54183 -0.0807729 0
M  V30 25 H 3.15339 0.0668473 -2.05054 0
M  V30 26 H 1.51325 0.414292 -2.04471 0
M  V30 27 H 4.3787 0.315259 2.18751 0
M  V30 END ATOM
M  V30 BEGIN BOND
M  V30 1 1 1 2
M  V30 2 1 2 3
M  V30 3 1 3 4
M  V30 4 1 4 5
M  V30 5 1 4 6
M  V30 6 1 6 7
M  V30 7 1 7 8
M  V30 8 1 7 9
M  V30 9 1 9 10
M  V30 10 2 9 11
M  V30 11 1 1 12
M  V30 12 1 1 13
M  V30 13 1 1 14
M  V30 14 1 2 15
M  V30 15 1 2 16
M  V30 16 1 3 17
M  V30 17 1 3 18
M  V30 18 1 4 19
M  V30 19 1 5 20
M  V30 20 1 5 21
M  V30 21 1 6 22
M  V30 22 1 6 23
M  V30 23 1 7 24
M  V30 24 1 8 25
M  V30 25 1 8 26
M  V30 26 1 10 27
M  V30 END BOND
M  V30 END CTAB
M  END
