
     RDKit          3D

  0  0  0  0  0  0  0  0  0  0999 V3000
M  V30 BEGIN CTAB
M  V30 COUNTS 24 25 0 0 0
M  V30 BEGIN ATOM
M  V30 1 N -4.45956 -1.07547 -0.793815 0
M  V30 2 C -3.06409 -0.839091 -0.605614 0
M  V30 3 N -2.10652 -1.62965 -1.13872 0
M  V30 4 C -0.779642 -1.38782 -0.960134 0
M  V30 5 Cl 0.426061 -2.44157 -1.67584 0
M  V30 6 C -0.452843 -0.28614 -0.201872 0
M  V30 7 C -1.4142 0.53518 0.355443 0
M  V30 8 N -1.0692 1.67166 1.15953 0
M  V30 9 N -2.69477 0.218342 0.124643 0
M  V30 10 C 0.949167 0.00494296 0.00956464 0
M  V30 11 C 1.50833 -0.190982 1.25135 0
M  V30 12 C 2.85296 0.0659438 1.47245 0
M  V30 13 C 3.60163 0.523446 0.396267 0
M  V30 14 C 3.02959 0.721531 -0.86289 0
M  V30 15 C 1.69707 0.463186 -1.06526 0
M  V30 16 H -4.81698 -1.11196 -1.78959 0
M  V30 17 H -5.13434 -1.21303 0.00272573 0
M  V30 18 H -0.552836 2.51117 0.824437 0
M  V30 19 H -1.35924 1.64644 2.15748 0
M  V30 20 H 0.962301 -0.550272 2.11395 0
M  V30 21 H 3.32216 -0.0651684 2.43779 0
M  V30 22 H 4.65062 0.731401 0.553942 0
M  V30 23 H 3.65138 1.08133 -1.6978 0
M  V30 24 H 1.25296 0.616589 -2.06805 0
M  V30 END ATOM
M  V30 BEGIN BOND
M  V30 1 1 1 2
M  V30 2 2 2 3
M  V30 3 1 3 4
M  V30 4 1 4 5
M  V30 5 2 4 6
M  V30 6 1 6 7
M  V30 7 1 7 8
M  V30 8 2 7 9
M  V30 9 1 6 10
M  V30 10 2 10 11
M  V30 11 1 11 12
M  V30 12 2 12 13
M  V30 13 1 13 14
M  V30 14 2 14 15
M  V30 15 1 9 2
M  V30 16 1 15 10
M  V30 17 1 1 16
M  V30 18 1 1 17
M  V30 19 1 8 18
M  V30 20 1 8 19
M  V30 21 1 11 20
M  V30 22 1 12 21
M  V30 23 1 13 22
M  V30 24 1 14 23
M  V30 25 1 15 24
M  V30 END BOND
M  V30 END CTAB
M  END
