
     RDKit          3D

  0  0  0  0  0  0  0  0  0  0999 V3000
M  V30 BEGIN CTAB
M  V30 COUNTS 63 67 0 0 0
M  V30 BEGIN ATOM
M  V30 1 C -1.21741 2.21313 0.544258 0
M  V30 2 O -1.73476 1.04623 1.08829 0
M  V30 3 C -2.06486 -0.124795 0.452411 0
M  V30 4 C -3.35567 -0.170889 -0.0810156 0
M  V30 5 C -4.31698 0.918913 0.025753 0
M  V30 6 C -5.07679 1.02282 1.19765 0
M  V30 7 N -5.98699 1.99551 1.30555 0
M  V30 8 C -6.25083 2.91744 0.357424 0
M  V30 9 N -7.23311 3.92233 0.515015 0
M  V30 10 C -5.50601 2.82842 -0.809964 0
M  V30 11 C -4.55213 1.84221 -0.97085 0
M  V30 12 C -3.82754 -1.29906 -0.748475 0
M  V30 13 N -5.06798 -1.33446 -1.26075 0
M  V30 14 C -5.54607 -2.41619 -1.91632 0
M  V30 15 N -6.86762 -2.4388 -2.46062 0
M  V30 16 N -4.71246 -3.46173 -2.02966 0
M  V30 17 C -3.45512 -3.49365 -1.53893 0
M  V30 18 C -2.97945 -2.36594 -0.865301 0
M  V30 19 C -1.71317 -2.31994 -0.340186 0
M  V30 20 C -1.21659 -1.1744 0.344364 0
M  V30 21 C 0.154921 -1.25471 0.832209 0
M  V30 22 C 1.17445 -0.476353 0.408279 0
M  V30 23 C 2.46763 -0.697241 0.849106 0
M  V30 24 N 3.52416 0.142487 0.349788 0
M  V30 25 C 4.73703 -0.446937 -0.00830632 0
M  V30 26 O 4.87712 -1.72355 0.107587 0
M  V30 27 C 5.90949 0.238701 -0.521193 0
M  V30 28 C 6.49858 -0.213835 -1.71047 0
M  V30 29 C 7.62135 0.343278 -2.24415 0
M  V30 30 C 8.2237 1.40644 -1.59626 0
M  V30 31 C 7.64314 1.85427 -0.422358 0
M  V30 32 C 6.50919 1.29729 0.121955 0
M  V30 33 C 8.32571 2.99106 0.245346 0
M  V30 34 F 8.39756 4.06221 -0.615513 0
M  V30 35 F 9.64514 2.60719 0.542347 0
M  V30 36 F 7.7086 3.31244 1.43523 0
M  V30 37 C 2.78468 -1.69611 1.72975 0
M  V30 38 C 1.72831 -2.50081 2.16836 0
M  V30 39 C 0.433747 -2.29682 1.73653 0
M  V30 40 C -0.668497 -3.17161 2.23119 0
M  V30 41 H -0.115383 2.35623 0.64744 0
M  V30 42 H -1.68641 3.0563 1.13708 0
M  V30 43 H -1.47891 2.31441 -0.544041 0
M  V30 44 H -4.88249 0.291624 1.97293 0
M  V30 45 H -7.309 4.72662 -0.129074 0
M  V30 46 H -7.90998 3.85045 1.29997 0
M  V30 47 H -5.65395 3.54374 -1.63377 0
M  V30 48 H -3.95976 1.77204 -1.89683 0
M  V30 49 H -7.4391 -3.29212 -2.58783 0
M  V30 50 H -7.33914 -1.5419 -2.77463 0
M  V30 51 H -2.77785 -4.33021 -1.6271 0
M  V30 52 H -1.04958 -3.14271 -0.439154 0
M  V30 53 H 1.01145 0.324132 -0.287544 0
M  V30 54 H 3.3929 1.1733 0.254263 0
M  V30 55 H 5.99946 -1.04631 -2.19385 0
M  V30 56 H 8.07603 -0.00697912 -3.15755 0
M  V30 57 H 9.12138 1.87425 -1.99263 0
M  V30 58 H 6.06686 1.66621 1.04397 0
M  V30 59 H 3.76035 -1.9192 2.13214 0
M  V30 60 H 1.92102 -3.31739 2.87263 0
M  V30 61 H -0.394501 -3.48507 3.28158 0
M  V30 62 H -0.749461 -4.13088 1.67352 0
M  V30 63 H -1.61841 -2.62103 2.31511 0
M  V30 END ATOM
M  V30 BEGIN BOND
M  V30 1 1 1 2
M  V30 2 1 2 3
M  V30 3 2 3 4
M  V30 4 1 4 5
M  V30 5 2 5 6
M  V30 6 1 6 7
M  V30 7 2 7 8
M  V30 8 1 8 9
M  V30 9 1 8 10
M  V30 10 2 10 11
M  V30 11 1 4 12
M  V30 12 2 12 13
M  V30 13 1 13 14
M  V30 14 1 14 15
M  V30 15 2 14 16
M  V30 16 1 16 17
M  V30 17 2 17 18
M  V30 18 1 18 19
M  V30 19 2 19 20
M  V30 20 1 20 21
M  V30 21 2 21 22
M  V30 22 1 22 23
M  V30 23 1 23 24
M  V30 24 1 24 25
M  V30 25 2 25 26
M  V30 26 1 25 27
M  V30 27 2 27 28
M  V30 28 1 28 29
M  V30 29 2 29 30
M  V30 30 1 30 31
M  V30 31 2 31 32
M  V30 32 1 31 33
M  V30 33 1 33 34
M  V30 34 1 33 35
M  V30 35 1 33 36
M  V30 36 2 23 37
M  V30 37 1 37 38
M  V30 38 2 38 39
M  V30 39 1 39 40
M  V30 40 1 20 3
M  V30 41 1 39 21
M  V30 42 1 11 5
M  V30 43 1 18 12
M  V30 44 1 32 27
M  V30 45 1 1 41
M  V30 46 1 1 42
M  V30 47 1 1 43
M  V30 48 1 6 44
M  V30 49 1 9 45
M  V30 50 1 9 46
M  V30 51 1 10 47
M  V30 52 1 11 48
M  V30 53 1 15 49
M  V30 54 1 15 50
M  V30 55 1 17 51
M  V30 56 1 19 52
M  V30 57 1 22 53
M  V30 58 1 24 54
M  V30 59 1 28 55
M  V30 60 1 29 56
M  V30 61 1 30 57
M  V30 62 1 32 58
M  V30 63 1 37 59
M  V30 64 1 38 60
M  V30 65 1 40 61
M  V30 66 1 40 62
M  V30 67 1 40 63
M  V30 END BOND
M  V30 END CTAB
M  END
