
     RDKit          3D

  0  0  0  0  0  0  0  0  0  0999 V3000
M  V30 BEGIN CTAB
M  V30 COUNTS 20 20 0 0 0
M  V30 BEGIN ATOM
M  V30 1 O -3.27828 1.44586 -0.410991 0
M  V30 2 N -2.98588 0.134676 -0.30995 0
M  V30 3 C -1.85061 -0.395526 -0.198074 0
M  V30 4 C -0.634698 0.380157 -0.160862 0
M  V30 5 C -0.384221 1.72808 -0.226229 0
M  V30 6 N 0.947328 1.90973 -0.144389 0
M  V30 7 N 1.56561 0.762693 -0.0306909 0
M  V30 8 C 0.634968 -0.20111 -0.0364478 0
M  V30 9 N 0.911689 -1.60539 0.0691643 0
M  V30 10 C 3.01502 0.526432 0.0850528 0
M  V30 11 N -1.79703 -1.81311 -0.107116 0
M  V30 12 H -3.491 2.01815 0.384346 0
M  V30 13 H -1.15607 2.48256 -0.326507 0
M  V30 14 H 1.27681 -2.03639 0.956187 0
M  V30 15 H 0.761146 -2.26431 -0.736547 0
M  V30 16 H 3.23811 -0.539245 0.0428227 0
M  V30 17 H 3.47054 1.11693 -0.732259 0
M  V30 18 H 3.30796 1.01247 1.04552 0
M  V30 19 H -2.04978 -2.4216 -0.909 0
M  V30 20 H -1.5016 -2.24105 0.77195 0
M  V30 END ATOM
M  V30 BEGIN BOND
M  V30 1 1 1 2
M  V30 2 2 2 3 CFG=2
M  V30 3 1 3 4
M  V30 4 1 4 5
M  V30 5 2 5 6
M  V30 6 1 6 7
M  V30 7 1 7 8
M  V30 8 1 8 9
M  V30 9 1 7 10
M  V30 10 1 3 11
M  V30 11 2 8 4
M  V30 12 1 1 12
M  V30 13 1 5 13
M  V30 14 1 9 14
M  V30 15 1 9 15
M  V30 16 1 10 16
M  V30 17 1 10 17
M  V30 18 1 10 18
M  V30 19 1 11 19
M  V30 20 1 11 20
M  V30 END BOND
M  V30 END CTAB
M  END
