
     RDKit          3D

  0  0  0  0  0  0  0  0  0  0999 V3000
M  V30 BEGIN CTAB
M  V30 COUNTS 18 18 0 0 0
M  V30 BEGIN ATOM
M  V30 1 N 3.41171 0.628878 -0.0825923 0
M  V30 2 C 2.03676 0.323373 0.0460333 0
M  V30 3 N 1.31711 0.934452 1.00641 0
M  V30 4 C 0.0142764 0.626189 1.10649 0
M  V30 5 C -0.616541 -0.270346 0.28934 0
M  V30 6 C 0.0843723 -0.910631 -0.698283 0
M  V30 7 C 1.42335 -0.600151 -0.808485 0
M  V30 8 F 2.21346 -1.1745 -1.75101 0
M  V30 9 S -2.3276 -0.628429 0.474934 0
M  V30 10 O -2.70732 -0.374804 1.90405 0
M  V30 11 O -2.6085 -2.04809 0.118447 0
M  V30 12 N -3.20253 0.481201 -0.519739 0
M  V30 13 H 3.72585 1.23266 -0.857278 0
M  V30 14 H 4.09091 0.248491 0.595436 0
M  V30 15 H -0.628241 1.09285 1.87249 0
M  V30 16 H -0.379708 -1.62402 -1.36178 0
M  V30 17 H -3.24932 1.38313 0.0144758 0
M  V30 18 H -2.59805 0.679745 -1.34894 0
M  V30 END ATOM
M  V30 BEGIN BOND
M  V30 1 1 1 2
M  V30 2 2 2 3
M  V30 3 1 3 4
M  V30 4 2 4 5
M  V30 5 1 5 6
M  V30 6 2 6 7
M  V30 7 1 7 8
M  V30 8 1 5 9
M  V30 9 2 9 10
M  V30 10 2 9 11
M  V30 11 1 9 12
M  V30 12 1 7 2
M  V30 13 1 1 13
M  V30 14 1 1 14
M  V30 15 1 4 15
M  V30 16 1 6 16
M  V30 17 1 12 17
M  V30 18 1 12 18
M  V30 END BOND
M  V30 END CTAB
M  END
