
     RDKit          3D

  0  0  0  0  0  0  0  0  0  0999 V3000
M  V30 BEGIN CTAB
M  V30 COUNTS 55 57 0 0 0
M  V30 BEGIN ATOM
M  V30 1 C -8.5218 -1.14465 0.0616872 0
M  V30 2 C -8.19656 0.294752 -0.262324 0
M  V30 3 C -6.70819 0.500921 -0.463455 0
M  V30 4 C -5.93486 0.12884 0.78243 0
M  V30 5 C -6.36384 0.967094 1.9451 0
M  V30 6 N -4.53157 0.419089 0.521581 0
M  V30 7 C -3.59071 -0.614146 0.501108 0
M  V30 8 O -4.0147 -1.80685 0.718809 0
M  V30 9 C -2.1755 -0.407191 0.24887 0
M  V30 10 C -1.65404 0.837714 0.0116552 0
M  V30 11 C -0.285049 1.00969 -0.228846 0
M  V30 12 C 0.578311 -0.0648715 -0.234471 0
M  V30 13 C 0.0481992 -1.31595 0.00487428 0
M  V30 14 C -1.29852 -1.48434 0.241387 0
M  V30 15 N 1.97424 0.132061 -0.482568 0
M  V30 16 C 2.46693 1.4769 -0.727716 0
M  V30 17 C 2.81235 -1.02892 -0.473358 0
M  V30 18 C 4.22371 -0.764774 -0.734009 0
M  V30 19 N 5.03835 -0.50441 0.294995 0
M  V30 20 C 6.3552 -0.246479 0.176726 0
M  V30 21 C 6.8372 -0.267326 -1.12691 0
M  V30 22 N 6.04959 -0.524355 -2.17993 0
M  V30 23 C 4.74916 -0.773506 -2.00223 0
M  V30 24 N 8.1625 -0.0113499 -1.28456 0
M  V30 25 C 8.94859 0.245329 -0.231206 0
M  V30 26 N 10.3333 0.504676 -0.483384 0
M  V30 27 N 8.45107 0.259745 1.03681 0
M  V30 28 C 7.15089 0.0153973 1.26575 0
M  V30 29 N 6.60494 0.0232338 2.57164 0
M  V30 30 H -9.53796 -1.37774 -0.342226 0
M  V30 31 H -8.61672 -1.25013 1.17722 0
M  V30 32 H -7.76058 -1.85498 -0.279246 0
M  V30 33 H -8.51185 0.968281 0.548964 0
M  V30 34 H -8.69492 0.622797 -1.19844 0
M  V30 35 H -6.56074 1.58366 -0.652037 0
M  V30 36 H -6.3506 -0.0762862 -1.33243 0
M  V30 37 H -6.06609 -0.946493 0.93971 0
M  V30 38 H -6.67412 1.96954 1.53953 0
M  V30 39 H -7.18311 0.528193 2.54332 0
M  V30 40 H -5.48736 1.09616 2.61119 0
M  V30 41 H -4.2312 1.41196 0.348662 0
M  V30 42 H -2.27911 1.7069 0.00448422 0
M  V30 43 H 0.134574 1.99467 -0.417667 0
M  V30 44 H 0.725615 -2.18458 0.00360907 0
M  V30 45 H -1.72738 -2.46538 0.43119 0
M  V30 46 H 1.98467 1.93786 -1.61553 0
M  V30 47 H 3.55408 1.53988 -0.715813 0
M  V30 48 H 2.11152 2.1013 0.144285 0
M  V30 49 H 2.70371 -1.49044 0.552084 0
M  V30 50 H 2.37161 -1.79908 -1.16423 0
M  V30 51 H 4.12268 -0.981939 -2.88185 0
M  V30 52 H 10.8901 1.18739 0.0490637 0
M  V30 53 H 10.791 -0.0390644 -1.25649 0
M  V30 54 H 6.42572 0.868315 3.13399 0
M  V30 55 H 6.35726 -0.907108 3.01581 0
M  V30 END ATOM
M  V30 BEGIN BOND
M  V30 1 1 1 2
M  V30 2 1 2 3
M  V30 3 1 3 4
M  V30 4 1 4 5
M  V30 5 1 4 6
M  V30 6 1 6 7
M  V30 7 2 7 8
M  V30 8 1 7 9
M  V30 9 2 9 10
M  V30 10 1 10 11
M  V30 11 2 11 12
M  V30 12 1 12 13
M  V30 13 2 13 14
M  V30 14 1 12 15
M  V30 15 1 15 16
M  V30 16 1 15 17
M  V30 17 1 17 18
M  V30 18 2 18 19
M  V30 19 1 19 20
M  V30 20 2 20 21
M  V30 21 1 21 22
M  V30 22 2 22 23
M  V30 23 1 21 24
M  V30 24 2 24 25
M  V30 25 1 25 26
M  V30 26 1 25 27
M  V30 27 2 27 28
M  V30 28 1 28 29
M  V30 29 1 14 9
M  V30 30 1 23 18
M  V30 31 1 28 20
M  V30 32 1 1 30
M  V30 33 1 1 31
M  V30 34 1 1 32
M  V30 35 1 2 33
M  V30 36 1 2 34
M  V30 37 1 3 35
M  V30 38 1 3 36
M  V30 39 1 4 37
M  V30 40 1 5 38
M  V30 41 1 5 39
M  V30 42 1 5 40
M  V30 43 1 6 41
M  V30 44 1 10 42
M  V30 45 1 11 43
M  V30 46 1 13 44
M  V30 47 1 14 45
M  V30 48 1 16 46
M  V30 49 1 16 47
M  V30 50 1 16 48
M  V30 51 1 17 49
M  V30 52 1 17 50
M  V30 53 1 23 51
M  V30 54 1 26 52
M  V30 55 1 26 53
M  V30 56 1 29 54
M  V30 57 1 29 55
M  V30 END BOND
M  V30 END CTAB
M  END
