
     RDKit          3D

  0  0  0  0  0  0  0  0  0  0999 V3000
M  V30 BEGIN CTAB
M  V30 COUNTS 52 53 0 0 0
M  V30 BEGIN ATOM
M  V30 1 N 0.392675 2.51308 -4.36307 0
M  V30 2 C 0.299649 1.92995 -3.3686 0
M  V30 3 C 0.2112 1.16369 -2.05817 0
M  V30 4 C -0.954039 0.863481 -1.66852 0
M  V30 5 N -1.42745 0.191677 -0.565169 0
M  V30 6 C -1.79027 0.920455 0.633451 0
M  V30 7 C -1.36537 2.37117 0.558111 0
M  V30 8 C -1.38625 0.380511 1.94711 0
M  V30 9 C -3.36355 0.968656 0.634908 0
M  V30 10 C -3.90089 -0.00903325 -0.358047 0
M  V30 11 C -3.25565 -1.34611 -0.18721 0
M  V30 12 C -1.77655 -1.20692 -0.639635 0
M  V30 13 C -0.97875 -2.19779 0.121591 0
M  V30 14 C -1.78503 -1.68407 -2.0934 0
M  V30 15 N -5.32204 -0.180868 -0.0442871 0
M  V30 16 C 1.44269 0.889824 -1.42812 0
M  V30 17 O 2.46412 1.33943 -2.12082 0
M  V30 18 N 1.84513 0.263214 -0.255859 0
M  V30 19 C 3.16352 0.085195 0.2368 0
M  V30 20 C 3.42989 -0.98247 1.10887 0
M  V30 21 C 4.69094 -1.16215 1.6227 0
M  V30 22 C 5.74045 -0.322146 1.31665 0
M  V30 23 C 5.49053 0.712684 0.474518 0
M  V30 24 C 4.20505 0.913645 -0.061982 0
M  V30 25 N 7.02153 -0.552567 1.87354 0
M  V30 26 H -1.84047 1.20844 -2.35628 0
M  V30 27 H -1.93096 2.89437 1.38063 0
M  V30 28 H -0.287826 2.49693 0.773726 0
M  V30 29 H -1.68947 2.81854 -0.387983 0
M  V30 30 H -0.308507 0.283788 2.11271 0
M  V30 31 H -1.84899 -0.576803 2.25784 0
M  V30 32 H -1.8086 1.11446 2.72125 0
M  V30 33 H -3.71278 1.97934 0.373949 0
M  V30 34 H -3.74453 0.722834 1.6381 0
M  V30 35 H -3.83233 0.356632 -1.40305 0
M  V30 36 H -3.34536 -1.71534 0.83025 0
M  V30 37 H -3.75145 -2.08106 -0.854813 0
M  V30 38 H -0.296157 -2.80646 -0.539894 0
M  V30 39 H -1.63678 -2.99109 0.584677 0
M  V30 40 H -0.359855 -1.83804 0.939545 0
M  V30 41 H -0.856924 -2.27157 -2.29801 0
M  V30 42 H -2.63865 -2.36262 -2.29481 0
M  V30 43 H -1.82479 -0.861322 -2.80598 0
M  V30 44 H -5.68776 -1.01511 -0.538872 0
M  V30 45 H -5.84745 0.69632 -0.259948 0
M  V30 46 H 1.10969 -0.127635 0.354099 0
M  V30 47 H 2.66408 -1.68376 1.39774 0
M  V30 48 H 4.91355 -1.99342 2.30621 0
M  V30 49 H 6.31739 1.37141 0.23571 0
M  V30 50 H 4.15899 1.7872 -0.699102 0
M  V30 51 H 7.14571 -0.444062 2.90254 0
M  V30 52 H 7.8487 -0.824506 1.31537 0
M  V30 END ATOM
M  V30 BEGIN BOND
M  V30 1 3 1 2
M  V30 2 1 2 3
M  V30 3 2 3 4
M  V30 4 1 4 5
M  V30 5 1 5 6
M  V30 6 1 6 7
M  V30 7 1 6 8
M  V30 8 1 6 9
M  V30 9 1 9 10
M  V30 10 1 10 11
M  V30 11 1 11 12
M  V30 12 1 12 13
M  V30 13 1 12 14
M  V30 14 1 10 15
M  V30 15 1 3 16
M  V30 16 2 16 17
M  V30 17 1 16 18
M  V30 18 1 18 19
M  V30 19 2 19 20
M  V30 20 1 20 21
M  V30 21 2 21 22
M  V30 22 1 22 23
M  V30 23 2 23 24
M  V30 24 1 22 25
M  V30 25 1 12 5
M  V30 26 1 24 19
M  V30 27 1 4 26
M  V30 28 1 7 27
M  V30 29 1 7 28
M  V30 30 1 7 29
M  V30 31 1 8 30
M  V30 32 1 8 31
M  V30 33 1 8 32
M  V30 34 1 9 33
M  V30 35 1 9 34
M  V30 36 1 10 35
M  V30 37 1 11 36
M  V30 38 1 11 37
M  V30 39 1 13 38
M  V30 40 1 13 39
M  V30 41 1 13 40
M  V30 42 1 14 41
M  V30 43 1 14 42
M  V30 44 1 14 43
M  V30 45 1 15 44
M  V30 46 1 15 45
M  V30 47 1 18 46
M  V30 48 1 20 47
M  V30 49 1 21 48
M  V30 50 1 23 49
M  V30 51 1 24 50
M  V30 52 1 25 51
M  V30 53 1 25 52
M  V30 END BOND
M  V30 END CTAB
M  END
