
     RDKit          3D

  0  0  0  0  0  0  0  0  0  0999 V3000
M  V30 BEGIN CTAB
M  V30 COUNTS 54 56 0 0 0
M  V30 BEGIN ATOM
M  V30 1 C 8.97342 0.0787212 2.77925 0
M  V30 2 O 8.70209 0.145919 1.40506 0
M  V30 3 C 7.39339 0.220407 0.971702 0
M  V30 4 O 6.4932 0.224372 1.84121 0
M  V30 5 C 7.0162 0.294542 -0.455045 0
M  V30 6 N 5.59928 0.331878 -0.667824 0
M  V30 7 C 4.73385 -0.707687 -0.269875 0
M  V30 8 O 5.15994 -1.76539 0.308129 0
M  V30 9 C 3.31273 -0.622385 -0.501095 0
M  V30 10 C 2.49052 -1.7466 -0.339211 0
M  V30 11 C 1.13861 -1.63199 -0.56262 0
M  V30 12 C 0.529685 -0.451075 -0.944902 0
M  V30 13 C 1.35314 0.644279 -1.09928 0
M  V30 14 C 2.7334 0.555692 -0.878194 0
M  V30 15 N -0.885517 -0.38228 -1.16704 0
M  V30 16 C -1.63513 -1.59527 -0.976863 0
M  V30 17 C -3.11884 -1.42347 -1.12637 0
M  V30 18 N -3.59018 -0.0795812 -0.902134 0
M  V30 19 C -2.90165 0.988001 -1.59854 0
M  V30 20 C -1.4195 0.890453 -1.55873 0
M  V30 21 C -4.66666 0.2587 -0.0713297 0
M  V30 22 C -4.45845 0.532626 1.25509 0
M  V30 23 C -3.09077 0.469377 1.80542 0
M  V30 24 N -5.51673 0.858112 2.04126 0
M  V30 25 C -6.78395 0.926351 1.5736 0
M  V30 26 N -7.86248 1.27667 2.45655 0
M  V30 27 N -6.99066 0.660456 0.283345 0
M  V30 28 C -5.96792 0.336603 -0.517115 0
M  V30 29 N -6.20896 0.0546805 -1.89774 0
M  V30 30 H 9.23915 1.0865 3.1799 0
M  V30 31 H 9.82634 -0.589996 3.03328 0
M  V30 32 H 8.0827 -0.302965 3.31478 0
M  V30 33 H 7.46742 -0.605124 -0.948067 0
M  V30 34 H 7.47518 1.19114 -0.898158 0
M  V30 35 H 5.20641 1.16069 -1.13685 0
M  V30 36 H 2.95929 -2.67603 -0.0399961 0
M  V30 37 H 0.552382 -2.54504 -0.419201 0
M  V30 38 H 0.907664 1.57595 -1.39589 0
M  V30 39 H 3.2681 1.47651 -1.02694 0
M  V30 40 H -1.46223 -1.90087 0.0969578 0
M  V30 41 H -1.22449 -2.3776 -1.6518 0
M  V30 42 H -3.69789 -2.17964 -0.560523 0
M  V30 43 H -3.3487 -1.64646 -2.20996 0
M  V30 44 H -3.24799 1.98966 -1.25718 0
M  V30 45 H -3.2055 0.867587 -2.68161 0
M  V30 46 H -1.05284 1.67569 -0.852921 0
M  V30 47 H -0.949405 1.17779 -2.54541 0
M  V30 48 H -2.68305 -0.578805 1.80138 0
M  V30 49 H -2.40324 1.2139 1.40296 0
M  V30 50 H -3.15411 0.70334 2.91134 0
M  V30 51 H -8.83118 1.01632 2.23413 0
M  V30 52 H -7.65174 1.79584 3.32181 0
M  V30 53 H -6.30622 0.803453 -2.62197 0
M  V30 54 H -6.29811 -0.935404 -2.23677 0
M  V30 END ATOM
M  V30 BEGIN BOND
M  V30 1 1 1 2
M  V30 2 1 2 3
M  V30 3 2 3 4
M  V30 4 1 3 5
M  V30 5 1 5 6
M  V30 6 1 6 7
M  V30 7 2 7 8
M  V30 8 1 7 9
M  V30 9 2 9 10
M  V30 10 1 10 11
M  V30 11 2 11 12
M  V30 12 1 12 13
M  V30 13 2 13 14
M  V30 14 1 12 15
M  V30 15 1 15 16
M  V30 16 1 16 17
M  V30 17 1 17 18
M  V30 18 1 18 19
M  V30 19 1 19 20
M  V30 20 1 18 21
M  V30 21 2 21 22
M  V30 22 1 22 23
M  V30 23 1 22 24
M  V30 24 2 24 25
M  V30 25 1 25 26
M  V30 26 1 25 27
M  V30 27 2 27 28
M  V30 28 1 28 29
M  V30 29 1 14 9
M  V30 30 1 20 15
M  V30 31 1 28 21
M  V30 32 1 1 30
M  V30 33 1 1 31
M  V30 34 1 1 32
M  V30 35 1 5 33
M  V30 36 1 5 34
M  V30 37 1 6 35
M  V30 38 1 10 36
M  V30 39 1 11 37
M  V30 40 1 13 38
M  V30 41 1 14 39
M  V30 42 1 16 40
M  V30 43 1 16 41
M  V30 44 1 17 42
M  V30 45 1 17 43
M  V30 46 1 19 44
M  V30 47 1 19 45
M  V30 48 1 20 46
M  V30 49 1 20 47
M  V30 50 1 23 48
M  V30 51 1 23 49
M  V30 52 1 23 50
M  V30 53 1 26 51
M  V30 54 1 26 52
M  V30 55 1 29 53
M  V30 56 1 29 54
M  V30 END BOND
M  V30 END CTAB
M  END
