
     RDKit          3D

  0  0  0  0  0  0  0  0  0  0999 V3000
M  V30 BEGIN CTAB
M  V30 COUNTS 26 27 0 0 0
M  V30 BEGIN ATOM
M  V30 1 C -3.58751 -0.0831872 -1.06353 0
M  V30 2 N -2.74532 0.347621 0.032964 0
M  V30 3 C -3.26259 1.12153 1.11884 0
M  V30 4 C -1.35608 -0.0184434 0.0175934 0
M  V30 5 C -0.998857 -1.35132 0.00529955 0
M  V30 6 Cl -2.30578 -2.5415 0.00944557 0
M  V30 7 N 0.289876 -1.72753 -0.00920632 0
M  V30 8 C 1.26424 -0.798526 -0.0120019 0
M  V30 9 C 2.60036 -1.12123 -0.0265773 0
M  V30 10 N 2.93891 -2.50156 -0.03902 0
M  V30 11 N 3.52597 -0.145635 -0.0285977 0
M  V30 12 C 3.20514 1.16727 -0.0167761 0
M  V30 13 N 4.23106 2.15583 -0.0196337 0
M  V30 14 N 1.89948 1.48702 -0.00250315 0
M  V30 15 C 0.923051 0.538109 0.000168527 0
M  V30 16 N -0.379579 0.905313 0.0147431 0
M  V30 17 H -4.11723 0.82217 -1.42754 0
M  V30 18 H -2.98823 -0.451514 -1.91985 0
M  V30 19 H -4.28706 -0.893526 -0.777127 0
M  V30 20 H -2.43851 1.80397 1.45883 0
M  V30 21 H -3.62406 0.492721 1.9597 0
M  V30 22 H -4.12806 1.75992 0.805338 0
M  V30 23 H 2.85631 -3.02191 0.853722 0
M  V30 24 H 3.25792 -2.97635 -0.908013 0
M  V30 25 H 4.22335 2.93552 -0.700982 0
M  V30 26 H 5.00322 2.09524 0.674721 0
M  V30 END ATOM
M  V30 BEGIN BOND
M  V30 1 1 1 2
M  V30 2 1 2 3
M  V30 3 1 2 4
M  V30 4 2 4 5
M  V30 5 1 5 6
M  V30 6 1 5 7
M  V30 7 2 7 8
M  V30 8 1 8 9
M  V30 9 1 9 10
M  V30 10 2 9 11
M  V30 11 1 11 12
M  V30 12 1 12 13
M  V30 13 2 12 14
M  V30 14 1 14 15
M  V30 15 2 15 16
M  V30 16 1 16 4
M  V30 17 1 15 8
M  V30 18 1 1 17
M  V30 19 1 1 18
M  V30 20 1 1 19
M  V30 21 1 3 20
M  V30 22 1 3 21
M  V30 23 1 3 22
M  V30 24 1 10 23
M  V30 25 1 10 24
M  V30 26 1 13 25
M  V30 27 1 13 26
M  V30 END BOND
M  V30 END CTAB
M  END
