
     RDKit          3D

  0  0  0  0  0  0  0  0  0  0999 V3000
M  V30 BEGIN CTAB
M  V30 COUNTS 20 21 0 0 0
M  V30 BEGIN ATOM
M  V30 1 N -2.90937 0.707262 -2.2966 0
M  V30 2 C -2.08024 0.285547 -1.22953 0
M  V30 3 N -2.63014 -0.375917 -0.17159 0
M  V30 4 C -1.88909 -0.787587 0.847357 0
M  V30 5 N -2.37783 -1.48097 1.98556 0
M  V30 6 N -0.560938 -0.527818 0.802028 0
M  V30 7 C -0.0111817 0.118845 -0.22819 0
M  V30 8 N -0.750587 0.532355 -1.25004 0
M  V30 9 C 1.44582 0.347833 -0.172823 0
M  V30 10 S 2.3994 1.13955 -1.34046 0
M  V30 11 C 3.9231 1.01132 -0.59278 0
M  V30 12 C 3.6385 0.341875 0.56819 0
M  V30 13 C 2.3494 -0.00115065 0.78253 0
M  V30 14 I 1.70206 -1.05297 2.54008 0
M  V30 15 H -2.77021 1.59244 -2.82881 0
M  V30 16 H -3.72853 0.118292 -2.6026 0
M  V30 17 H -2.28933 -2.49777 2.0856 0
M  V30 18 H -2.83947 -0.940777 2.74034 0
M  V30 19 H 4.91864 1.36725 -0.929045 0
M  V30 20 H 4.45999 0.1024 1.2908 0
M  V30 END ATOM
M  V30 BEGIN BOND
M  V30 1 1 1 2
M  V30 2 2 2 3
M  V30 3 1 3 4
M  V30 4 1 4 5
M  V30 5 2 4 6
M  V30 6 1 6 7
M  V30 7 2 7 8
M  V30 8 1 7 9
M  V30 9 1 9 10
M  V30 10 1 10 11
M  V30 11 2 11 12
M  V30 12 1 12 13
M  V30 13 1 13 14
M  V30 14 1 8 2
M  V30 15 2 13 9
M  V30 16 1 1 15
M  V30 17 1 1 16
M  V30 18 1 5 17
M  V30 19 1 5 18
M  V30 20 1 11 19
M  V30 21 1 12 20
M  V30 END BOND
M  V30 END CTAB
M  END
