
     RDKit          3D

  0  0  0  0  0  0  0  0  0  0999 V3000
M  V30 BEGIN CTAB
M  V30 COUNTS 38 39 0 0 0
M  V30 BEGIN ATOM
M  V30 1 C 4.44775 -1.99336 -0.753536 0
M  V30 2 C 3.91863 -1.81084 0.652348 0
M  V30 3 C 4.31691 -0.444834 1.14934 0
M  V30 4 C 3.7966 0.670204 0.324324 0
M  V30 5 C 2.32936 0.770934 0.237577 0
M  V30 6 N 1.31667 0.0895305 0.751613 0
M  V30 7 O 0.167259 0.600212 0.354588 0
M  V30 8 C 0.411812 1.62416 -0.425733 0
M  V30 9 N 1.74211 1.74962 -0.513397 0
M  V30 10 C -0.58889 2.50636 -1.10524 0
M  V30 11 S -1.66479 1.60648 -2.21634 0
M  V30 12 C -2.74073 0.469221 -1.36944 0
M  V30 13 N -3.95854 0.817402 -0.919411 0
M  V30 14 C -4.78851 -0.0199254 -0.278649 0
M  V30 15 N -6.06978 0.382099 0.183546 0
M  V30 16 C -4.38159 -1.31652 -0.0619774 0
M  V30 17 C -3.12849 -1.67943 -0.52358 0
M  V30 18 N -2.34061 -0.795852 -1.1595 0
M  V30 19 N -2.72049 -3.01187 -0.295905 0
M  V30 20 C -1.34368 3.26031 -0.0324144 0
M  V30 21 H 4.84697 -3.02272 -0.850333 0
M  V30 22 H 5.27804 -1.28458 -0.965776 0
M  V30 23 H 3.65169 -1.90107 -1.52504 0
M  V30 24 H 2.84299 -1.93543 0.637502 0
M  V30 25 H 4.42513 -2.56962 1.3055 0
M  V30 26 H 5.44352 -0.411612 1.05184 0
M  V30 27 H 4.11097 -0.326254 2.23577 0
M  V30 28 H 4.26476 0.584755 -0.699445 0
M  V30 29 H 4.14251 1.67749 0.698355 0
M  V30 30 H -0.0537507 3.27528 -1.70017 0
M  V30 31 H -6.22589 1.18254 0.835655 0
M  V30 32 H -6.89284 -0.150336 -0.146293 0
M  V30 33 H -5.02114 -2.04545 0.45776 0
M  V30 34 H -2.16713 -3.22953 0.548565 0
M  V30 35 H -2.97314 -3.75563 -0.965359 0
M  V30 36 H -0.553332 3.69631 0.645324 0
M  V30 37 H -1.8789 4.12801 -0.45748 0
M  V30 38 H -1.96145 2.61398 0.605325 0
M  V30 END ATOM
M  V30 BEGIN BOND
M  V30 1 1 1 2
M  V30 2 1 2 3
M  V30 3 1 3 4
M  V30 4 1 4 5
M  V30 5 2 5 6
M  V30 6 1 6 7
M  V30 7 1 7 8
M  V30 8 2 8 9
M  V30 9 1 8 10
M  V30 10 1 10 11
M  V30 11 1 11 12
M  V30 12 2 12 13
M  V30 13 1 13 14
M  V30 14 1 14 15
M  V30 15 2 14 16
M  V30 16 1 16 17
M  V30 17 2 17 18
M  V30 18 1 17 19
M  V30 19 1 10 20
M  V30 20 1 9 5
M  V30 21 1 18 12
M  V30 22 1 1 21
M  V30 23 1 1 22
M  V30 24 1 1 23
M  V30 25 1 2 24
M  V30 26 1 2 25
M  V30 27 1 3 26
M  V30 28 1 3 27
M  V30 29 1 4 28
M  V30 30 1 4 29
M  V30 31 1 10 30
M  V30 32 1 15 31
M  V30 33 1 15 32
M  V30 34 1 16 33
M  V30 35 1 19 34
M  V30 36 1 19 35
M  V30 37 1 20 36
M  V30 38 1 20 37
M  V30 39 1 20 38
M  V30 END BOND
M  V30 END CTAB
M  END
