
     RDKit          3D

  0  0  0  0  0  0  0  0  0  0999 V3000
M  V30 BEGIN CTAB
M  V30 COUNTS 21 22 0 0 0
M  V30 BEGIN ATOM
M  V30 1 N 4.45264 0.377221 0.0716954 0
M  V30 2 C 3.05531 0.519441 0.237268 0
M  V30 3 N 2.46551 1.48345 0.959599 0
M  V30 4 O 1.17276 1.31127 0.893552 0
M  V30 5 C 0.866523 0.272464 0.157586 0
M  V30 6 N 2.05048 -0.224015 -0.254063 0
M  V30 7 C -0.47258 -0.220646 -0.138009 0
M  V30 8 C -1.5829 0.408382 0.365999 0
M  V30 9 N -1.37284 1.563 1.18993 0
M  V30 10 C -2.84359 -0.0639835 0.0818278 0
M  V30 11 C -3.05974 -1.17538 -0.710605 0
M  V30 12 C -1.94703 -1.8098 -1.21861 0
M  V30 13 C -0.687095 -1.33079 -0.929612 0
M  V30 14 F 0.399319 -1.97278 -1.4419 0
M  V30 15 H 5.10458 1.19416 0.0552472 0
M  V30 16 H 4.8943 -0.581666 -0.0435529 0
M  V30 17 H -1.22981 1.48994 2.22866 0
M  V30 18 H -1.36155 2.49928 0.748195 0
M  V30 19 H -3.71319 0.447788 0.490361 0
M  V30 20 H -4.07565 -1.49675 -0.896817 0
M  V30 21 H -2.11544 -2.69059 -1.84675 0
M  V30 END ATOM
M  V30 BEGIN BOND
M  V30 1 1 1 2
M  V30 2 2 2 3
M  V30 3 1 3 4
M  V30 4 1 4 5
M  V30 5 2 5 6
M  V30 6 1 5 7
M  V30 7 2 7 8
M  V30 8 1 8 9
M  V30 9 1 8 10
M  V30 10 2 10 11
M  V30 11 1 11 12
M  V30 12 2 12 13
M  V30 13 1 13 14
M  V30 14 1 6 2
M  V30 15 1 13 7
M  V30 16 1 1 15
M  V30 17 1 1 16
M  V30 18 1 9 17
M  V30 19 1 9 18
M  V30 20 1 10 19
M  V30 21 1 11 20
M  V30 22 1 12 21
M  V30 END BOND
M  V30 END CTAB
M  END
