
     RDKit          3D

  0  0  0  0  0  0  0  0  0  0999 V3000
M  V30 BEGIN CTAB
M  V30 COUNTS 106 109 0 0 0
M  V30 BEGIN ATOM
M  V30 1 C -3.68196 -0.178995 -2.71354 0 CFG=2
M  V30 2 C -2.75968 0.792448 -3.41001 0
M  V30 3 N -4.76394 0.601015 -2.11961 0
M  V30 4 C -6.1097 0.493229 -2.4732 0
M  V30 5 O -6.42713 -0.344669 -3.38462 0
M  V30 6 C -7.12429 1.32944 -1.80165 0 CFG=2
M  V30 7 C -7.09469 1.2525 -0.30978 0
M  V30 8 C -8.08994 2.23786 0.200174 0
M  V30 9 C -9.09199 2.67014 -0.633316 0
M  V30 10 C -9.26985 2.22967 -2.04022 0
M  V30 11 N -8.45938 1.05143 -2.26514 0
M  V30 12 N -9.85861 3.55108 0.0625157 0
M  V30 13 C -9.37635 3.69196 1.30909 0
M  V30 14 C -9.73604 4.42873 2.41586 0
M  V30 15 C -9.02206 4.36181 3.59106 0
M  V30 16 C -7.90911 3.5473 3.70683 0
M  V30 17 C -7.54893 2.80177 2.5793 0
M  V30 18 C -8.2673 2.87657 1.41456 0
M  V30 19 C -3.01533 -0.972456 -1.65767 0
M  V30 20 O -3.49051 -0.877174 -0.475158 0
M  V30 21 N -1.90319 -1.81023 -1.89326 0
M  V30 22 C -1.32747 -2.56156 -0.73323 0 CFG=1
M  V30 23 C -0.965525 -3.90945 -1.2457 0
M  V30 24 C -0.409031 -4.90033 -0.314615 0
M  V30 25 C -1.3135 -5.36067 0.798017 0
M  V30 26 N -2.52773 -5.98723 0.298634 0
M  V30 27 C -2.43692 -7.23068 -0.354395 0
M  V30 28 N -3.54358 -7.7169 -1.1229 0
M  V30 29 N -1.38624 -7.96077 -0.284091 0
M  V30 30 C -0.0757653 -1.73634 -0.444944 0
M  V30 31 O 0.52047 -1.4392 -1.54139 0
M  V30 32 N 0.356123 -1.35726 0.818777 0
M  V30 33 C -0.378943 -1.71229 2.07051 0
M  V30 34 C 0.77058 -2.35002 2.85398 0
M  V30 35 C 2.05902 -1.79629 2.21293 0
M  V30 36 C 1.43796 -0.640539 1.39369 0 CFG=1
M  V30 37 C 2.36617 0.131203 0.639813 0
M  V30 38 O 2.32651 0.301697 -0.58523 0
M  V30 39 N 3.43632 0.775863 1.31619 0
M  V30 40 C 4.44306 1.59763 0.747966 0 CFG=1
M  V30 41 C 4.52483 2.96994 1.37784 0
M  V30 42 C 5.78119 0.9869 0.856807 0
M  V30 43 O 5.89104 -0.158657 1.32912 0
M  V30 44 N 6.94103 1.68511 0.435182 0
M  V30 45 C 8.22494 1.05261 0.555398 0 CFG=1
M  V30 46 C 9.07308 1.30412 -0.643819 0
M  V30 47 C 9.34328 2.75403 -0.848559 0
M  V30 48 C 10.2067 2.99495 -2.03962 0
M  V30 49 C 11.5253 2.30724 -1.89137 0
M  V30 50 N 12.1885 2.8079 -0.698359 0
M  V30 51 C 8.92155 1.50475 1.80593 0
M  V30 52 O 10.1707 1.00812 2.09122 0
M  V30 53 O 8.37622 2.31714 2.5714 0
M  V30 54 H -4.12802 -0.843183 -3.50219 0
M  V30 55 H -1.91938 0.238541 -3.91981 0
M  V30 56 H -3.36315 1.26387 -4.21417 0
M  V30 57 H -2.29569 1.48171 -2.7064 0
M  V30 58 H -4.46235 1.28687 -1.36992 0
M  V30 59 H -6.90721 2.38106 -2.11711 0
M  V30 60 H -6.09481 1.57203 0.0610687 0
M  V30 61 H -7.27649 0.220359 0.0398416 0
M  V30 62 H -8.85789 3.04774 -2.68681 0
M  V30 63 H -10.3347 1.99497 -2.28252 0
M  V30 64 H -8.85933 0.193609 -1.82486 0
M  V30 65 H -10.7152 4.07212 -0.284011 0
M  V30 66 H -10.6045 5.0692 2.33752 0
M  V30 67 H -9.30016 4.94681 4.483 0
M  V30 68 H -7.35427 3.49909 4.62871 0
M  V30 69 H -6.67542 2.1516 2.64307 0
M  V30 70 H -1.51491 -1.89079 -2.84206 0
M  V30 71 H -1.95981 -2.48233 0.134187 0
M  V30 72 H -1.92553 -4.34929 -1.65995 0
M  V30 73 H -0.2579 -3.74378 -2.12272 0
M  V30 74 H 0.538242 -4.56019 0.186872 0
M  V30 75 H -0.107343 -5.80527 -0.908474 0
M  V30 76 H -1.56955 -4.51828 1.44862 0
M  V30 77 H -0.73577 -6.12787 1.37393 0
M  V30 78 H -3.44651 -5.5228 0.425274 0
M  V30 79 H -4.06592 -8.56443 -0.789192 0
M  V30 80 H -3.86411 -7.28263 -1.99373 0
M  V30 81 H -1.26437 -8.87419 -0.738496 0
M  V30 82 H -0.686126 -0.753047 2.57708 0
M  V30 83 H -1.21951 -2.33565 1.9374 0
M  V30 84 H 0.732662 -1.92719 3.87761 0
M  V30 85 H 0.731496 -3.43703 2.82286 0
M  V30 86 H 2.40621 -2.57049 1.52198 0
M  V30 87 H 2.76189 -1.44672 2.96297 0
M  V30 88 H 0.954431 0.0137444 2.22085 0
M  V30 89 H 3.48955 0.627878 2.36801 0
M  V30 90 H 4.27707 1.76056 -0.35504 0
M  V30 91 H 4.92261 3.66223 0.594378 0
M  V30 92 H 3.53078 3.37003 1.66486 0
M  V30 93 H 5.2711 3.02058 2.19938 0
M  V30 94 H 6.84205 2.65933 0.0403694 0
M  V30 95 H 8.0847 -0.0632572 0.66793 0
M  V30 96 H 10.0019 0.701525 -0.519997 0
M  V30 97 H 8.56795 0.875325 -1.54099 0
M  V30 98 H 8.35819 3.28249 -0.99745 0
M  V30 99 H 9.79731 3.20273 0.0656899 0
M  V30 100 H 10.3859 4.09091 -2.21945 0
M  V30 101 H 9.70249 2.60529 -2.94963 0
M  V30 102 H 12.161 2.53341 -2.78646 0
M  V30 103 H 11.377 1.22183 -1.87429 0
M  V30 104 H 11.7336 3.68058 -0.349001 0
M  V30 105 H 13.2181 2.94104 -0.85775 0
M  V30 106 H 10.3999 0.0149072 2.15653 0
M  V30 END ATOM
M  V30 BEGIN BOND
M  V30 1 1 1 2
M  V30 2 1 1 3
M  V30 3 1 3 4
M  V30 4 2 4 5
M  V30 5 1 4 6
M  V30 6 1 6 7
M  V30 7 1 7 8
M  V30 8 2 8 9
M  V30 9 1 9 10
M  V30 10 1 10 11
M  V30 11 1 9 12
M  V30 12 1 12 13
M  V30 13 2 13 14
M  V30 14 1 14 15
M  V30 15 2 15 16
M  V30 16 1 16 17
M  V30 17 2 17 18
M  V30 18 1 1 19
M  V30 19 2 19 20
M  V30 20 1 19 21
M  V30 21 1 21 22
M  V30 22 1 22 23
M  V30 23 1 23 24
M  V30 24 1 24 25
M  V30 25 1 25 26
M  V30 26 1 26 27
M  V30 27 1 27 28
M  V30 28 2 27 29 CFG=2
M  V30 29 1 22 30
M  V30 30 2 30 31
M  V30 31 1 30 32
M  V30 32 1 32 33
M  V30 33 1 33 34
M  V30 34 1 34 35
M  V30 35 1 35 36
M  V30 36 1 36 37
M  V30 37 2 37 38
M  V30 38 1 37 39
M  V30 39 1 39 40
M  V30 40 1 40 41
M  V30 41 1 40 42
M  V30 42 2 42 43
M  V30 43 1 42 44
M  V30 44 1 44 45
M  V30 45 1 45 46
M  V30 46 1 46 47
M  V30 47 1 47 48
M  V30 48 1 48 49
M  V30 49 1 49 50
M  V30 50 1 45 51
M  V30 51 1 51 52
M  V30 52 2 51 53
M  V30 53 1 11 6
M  V30 54 1 18 13
M  V30 55 1 36 32
M  V30 56 1 18 8
M  V30 57 1 1 54 CFG=3
M  V30 58 1 2 55
M  V30 59 1 2 56
M  V30 60 1 2 57
M  V30 61 1 3 58
M  V30 62 1 6 59 CFG=1
M  V30 63 1 7 60
M  V30 64 1 7 61
M  V30 65 1 10 62
M  V30 66 1 10 63
M  V30 67 1 11 64
M  V30 68 1 12 65
M  V30 69 1 14 66
M  V30 70 1 15 67
M  V30 71 1 16 68
M  V30 72 1 17 69
M  V30 73 1 21 70
M  V30 74 1 22 71 CFG=1
M  V30 75 1 23 72
M  V30 76 1 23 73
M  V30 77 1 24 74
M  V30 78 1 24 75
M  V30 79 1 25 76
M  V30 80 1 25 77
M  V30 81 1 26 78
M  V30 82 1 28 79
M  V30 83 1 28 80
M  V30 84 1 29 81
M  V30 85 1 33 82
M  V30 86 1 33 83
M  V30 87 1 34 84
M  V30 88 1 34 85
M  V30 89 1 35 86
M  V30 90 1 35 87
M  V30 91 1 36 88 CFG=1
M  V30 92 1 39 89
M  V30 93 1 40 90 CFG=3
M  V30 94 1 41 91
M  V30 95 1 41 92
M  V30 96 1 41 93
M  V30 97 1 44 94
M  V30 98 1 45 95 CFG=1
M  V30 99 1 46 96
M  V30 100 1 46 97
M  V30 101 1 47 98
M  V30 102 1 47 99
M  V30 103 1 48 100
M  V30 104 1 48 101
M  V30 105 1 49 102
M  V30 106 1 49 103
M  V30 107 1 50 104
M  V30 108 1 50 105
M  V30 109 1 52 106
M  V30 END BOND
M  V30 END CTAB
M  END
