
     RDKit          3D

  0  0  0  0  0  0  0  0  0  0999 V3000
M  V30 BEGIN CTAB
M  V30 COUNTS 38 40 0 0 0
M  V30 BEGIN ATOM
M  V30 1 N -2.02695 3.38425 -0.174126 0
M  V30 2 C -2.06206 2.14333 -1.02214 0
M  V30 3 C -0.857026 1.33401 -0.721628 0
M  V30 4 C 0.361598 1.93223 -1.13175 0
M  V30 5 N 0.290047 3.2399 -1.67025 0
M  V30 6 N 1.50476 1.22642 -0.940658 0
M  V30 7 C 1.57629 0.0030966 -0.380083 0
M  V30 8 C 0.361794 -0.536562 0.00843035 0
M  V30 9 C -0.874108 0.127429 -0.160037 0
M  V30 10 C -2.04141 -0.569338 0.29037 0
M  V30 11 C -3.07745 -1.02178 -0.505063 0
M  V30 12 Cl -3.00774 -0.763548 -2.242 0
M  V30 13 C -4.11196 -1.73386 0.0504498 0
M  V30 14 C -4.14841 -2.01809 1.42917 0
M  V30 15 Cl -5.47929 -2.91248 2.07724 0
M  V30 16 C -3.12958 -1.5755 2.25045 0
M  V30 17 C -2.10136 -0.86797 1.68483 0
M  V30 18 C 2.83187 -0.643109 -0.135679 0
M  V30 19 C 4.01674 -0.0483467 -0.487128 0
M  V30 20 C 5.26327 -0.627971 -0.20239 0
M  V30 21 C 5.3 -1.83406 0.447458 0
M  V30 22 C 4.14078 -2.44755 0.805924 0
M  V30 23 C 2.92521 -1.84823 0.510319 0
M  V30 24 H -2.72536 3.41726 0.532059 0
M  V30 25 H -2.00332 4.23937 -0.795205 0
M  V30 26 H -2.12294 2.4356 -2.03535 0
M  V30 27 H -2.99143 1.63842 -0.585282 0
M  V30 28 H -0.066056 3.47082 -2.63518 0
M  V30 29 H 0.60773 4.1028 -1.1241 0
M  V30 30 H 0.32234 -1.51184 0.424159 0
M  V30 31 H -4.90296 -2.07608 -0.591344 0
M  V30 32 H -3.17572 -1.7995 3.33412 0
M  V30 33 H -1.26904 -0.521732 2.3109 0
M  V30 34 H 4.06553 0.903974 -0.996902 0
M  V30 35 H 6.17144 -0.148627 -0.48472 0
M  V30 36 H 6.26335 -2.29696 0.70419 0
M  V30 37 H 4.11386 -3.38748 1.34948 0
M  V30 38 H 2.05758 -2.40831 0.811467 0
M  V30 END ATOM
M  V30 BEGIN BOND
M  V30 1 1 1 2
M  V30 2 1 2 3
M  V30 3 2 3 4
M  V30 4 1 4 5
M  V30 5 1 4 6
M  V30 6 2 6 7
M  V30 7 1 7 8
M  V30 8 2 8 9
M  V30 9 1 9 10
M  V30 10 2 10 11
M  V30 11 1 11 12
M  V30 12 1 11 13
M  V30 13 2 13 14
M  V30 14 1 14 15
M  V30 15 1 14 16
M  V30 16 2 16 17
M  V30 17 1 7 18
M  V30 18 2 18 19
M  V30 19 1 19 20
M  V30 20 2 20 21
M  V30 21 1 21 22
M  V30 22 2 22 23
M  V30 23 1 9 3
M  V30 24 1 17 10
M  V30 25 1 23 18
M  V30 26 1 1 24
M  V30 27 1 1 25
M  V30 28 1 2 26
M  V30 29 1 2 27
M  V30 30 1 5 28
M  V30 31 1 5 29
M  V30 32 1 8 30
M  V30 33 1 13 31
M  V30 34 1 16 32
M  V30 35 1 17 33
M  V30 36 1 19 34
M  V30 37 1 20 35
M  V30 38 1 21 36
M  V30 39 1 22 37
M  V30 40 1 23 38
M  V30 END BOND
M  V30 END CTAB
M  END
