
     RDKit          3D

  0  0  0  0  0  0  0  0  0  0999 V3000
M  V30 BEGIN CTAB
M  V30 COUNTS 54 57 0 0 0
M  V30 BEGIN ATOM
M  V30 1 C -4.85622 1.67197 1.71397 0
M  V30 2 C -5.1203 0.18289 1.55326 0
M  V30 3 C -5.21179 -0.215364 0.145355 0
M  V30 4 C -6.44761 -0.480584 -0.422764 0
M  V30 5 C -6.61078 -0.852961 -1.73845 0
M  V30 6 C -5.48021 -0.963819 -2.5188 0
M  V30 7 C -4.24729 -0.700709 -1.95716 0
M  V30 8 C -4.08875 -0.323826 -0.623005 0
M  V30 9 N -2.76809 -0.0869064 -0.168791 0
M  V30 10 C -2.21831 -0.935426 0.856001 0
M  V30 11 C -0.925929 -1.50587 0.260914 0
M  V30 12 N -0.0513019 -0.403275 0.00480471 0
M  V30 13 C -0.523942 0.890525 -0.354128 0
M  V30 14 C -1.9704 0.979576 -0.710945 0
M  V30 15 C 1.35239 -0.609142 0.111894 0
M  V30 16 C 2.284 0.386247 -0.099295 0
M  V30 17 C 3.64427 0.197822 0.000208279 0
M  V30 18 N 4.08072 -1.03244 0.322789 0
M  V30 19 C 3.19192 -2.019 0.53346 0
M  V30 20 N 1.86626 -1.82585 0.434115 0
M  V30 21 N 3.65956 -3.32272 0.875191 0
M  V30 22 C 4.62019 1.27726 -0.229381 0
M  V30 23 C 5.70035 0.94677 -1.24731 0
M  V30 24 C 6.7252 1.52002 -0.307837 0
M  V30 25 C 5.69114 1.44109 0.804687 0
M  V30 26 N 7.90403 0.721021 -0.107426 0
M  V30 27 H -5.65342 2.19548 2.27893 0
M  V30 28 H -4.78995 2.17928 0.725988 0
M  V30 29 H -3.92716 1.75678 2.30598 0
M  V30 30 H -4.45279 -0.435462 2.17311 0
M  V30 31 H -6.14095 0.0271267 2.01935 0
M  V30 32 H -7.36108 -0.400756 0.172131 0
M  V30 33 H -7.59476 -1.05256 -2.1493 0
M  V30 34 H -5.58774 -1.25525 -3.55601 0
M  V30 35 H -3.35172 -0.785827 -2.56573 0
M  V30 36 H -2.84639 -1.8252 1.06461 0
M  V30 37 H -2.01728 -0.397251 1.78718 0
M  V30 38 H -1.17492 -1.98373 -0.708475 0
M  V30 39 H -0.485979 -2.24158 0.967309 0
M  V30 40 H 0.106591 1.24658 -1.21638 0
M  V30 41 H -0.273936 1.58941 0.480212 0
M  V30 42 H -2.04352 0.961642 -1.83848 0
M  V30 43 H -2.36417 1.97866 -0.413277 0
M  V30 44 H 1.9469 1.37261 -0.356679 0
M  V30 45 H 4.66998 -3.54585 0.817279 0
M  V30 46 H 3.0183 -4.07182 1.18553 0
M  V30 47 H 4.10678 2.23188 -0.472951 0
M  V30 48 H 5.87299 -0.114987 -1.42791 0
M  V30 49 H 5.63928 1.58514 -2.16129 0
M  V30 50 H 7.02635 2.579 -0.536635 0
M  V30 51 H 5.85806 0.549188 1.44736 0
M  V30 52 H 5.59281 2.39342 1.3893 0
M  V30 53 H 7.80645 -0.255157 -0.437869 0
M  V30 54 H 8.22217 0.781954 0.881465 0
M  V30 END ATOM
M  V30 BEGIN BOND
M  V30 1 1 1 2
M  V30 2 1 2 3
M  V30 3 2 3 4
M  V30 4 1 4 5
M  V30 5 2 5 6
M  V30 6 1 6 7
M  V30 7 2 7 8
M  V30 8 1 8 9
M  V30 9 1 9 10
M  V30 10 1 10 11
M  V30 11 1 11 12
M  V30 12 1 12 13
M  V30 13 1 13 14
M  V30 14 1 12 15
M  V30 15 2 15 16
M  V30 16 1 16 17
M  V30 17 2 17 18
M  V30 18 1 18 19
M  V30 19 2 19 20
M  V30 20 1 19 21
M  V30 21 1 17 22
M  V30 22 1 22 23
M  V30 23 1 23 24
M  V30 24 1 24 25
M  V30 25 1 24 26
M  V30 26 1 8 3
M  V30 27 1 14 9
M  V30 28 1 20 15
M  V30 29 1 25 22
M  V30 30 1 1 27
M  V30 31 1 1 28
M  V30 32 1 1 29
M  V30 33 1 2 30
M  V30 34 1 2 31
M  V30 35 1 4 32
M  V30 36 1 5 33
M  V30 37 1 6 34
M  V30 38 1 7 35
M  V30 39 1 10 36
M  V30 40 1 10 37
M  V30 41 1 11 38
M  V30 42 1 11 39
M  V30 43 1 13 40
M  V30 44 1 13 41
M  V30 45 1 14 42
M  V30 46 1 14 43
M  V30 47 1 16 44
M  V30 48 1 21 45
M  V30 49 1 21 46
M  V30 50 1 22 47
M  V30 51 1 23 48
M  V30 52 1 23 49
M  V30 53 1 24 50
M  V30 54 1 25 51
M  V30 55 1 25 52
M  V30 56 1 26 53
M  V30 57 1 26 54
M  V30 END BOND
M  V30 END CTAB
M  END
