
     RDKit          3D

  0  0  0  0  0  0  0  0  0  0999 V3000
M  V30 BEGIN CTAB
M  V30 COUNTS 23 23 0 0 0
M  V30 BEGIN ATOM
M  V30 1 C 4.36332 0.464444 0.865902 0
M  V30 2 C 2.91731 0.173729 1.01505 0
M  V30 3 O 2.29807 0.273038 2.09779 0
M  V30 4 O 2.20231 -0.236271 -0.123339 0
M  V30 5 N 0.865466 -0.505933 0.0104849 0
M  V30 6 C 0.00404428 0.243851 -0.543826 0
M  V30 7 N 0.443304 1.3705 -1.30775 0
M  V30 8 C -1.43795 0.0218885 -0.447281 0
M  V30 9 N -2.3267 0.831651 -1.04428 0
M  V30 10 C -3.65717 0.634451 -0.960466 0
M  V30 11 C -4.13456 -0.436921 -0.236401 0
M  V30 12 N -3.24763 -1.25042 0.363113 0
M  V30 13 C -1.9084 -1.04534 0.274184 0
M  V30 14 N -0.958337 -1.89306 0.899951 0
M  V30 15 H 4.45884 1.13481 -0.0234638 0
M  V30 16 H 4.75583 0.951112 1.78158 0
M  V30 17 H 4.9044 -0.481515 0.745848 0
M  V30 18 H 0.040986 2.31352 -1.11335 0
M  V30 19 H 1.16104 1.1736 -2.03462 0
M  V30 20 H -4.35224 1.32227 -1.46518 0
M  V30 21 H -5.19603 -0.586774 -0.174714 0
M  V30 22 H -0.667256 -2.7522 0.391047 0
M  V30 23 H -0.52865 -1.72042 1.83288 0
M  V30 END ATOM
M  V30 BEGIN BOND
M  V30 1 1 1 2
M  V30 2 2 2 3
M  V30 3 1 2 4
M  V30 4 1 4 5
M  V30 5 2 5 6 CFG=2
M  V30 6 1 6 7
M  V30 7 1 6 8
M  V30 8 2 8 9
M  V30 9 1 9 10
M  V30 10 2 10 11
M  V30 11 1 11 12
M  V30 12 2 12 13
M  V30 13 1 13 14
M  V30 14 1 13 8
M  V30 15 1 1 15
M  V30 16 1 1 16
M  V30 17 1 1 17
M  V30 18 1 7 18
M  V30 19 1 7 19
M  V30 20 1 10 20
M  V30 21 1 11 21
M  V30 22 1 14 22
M  V30 23 1 14 23
M  V30 END BOND
M  V30 END CTAB
M  END
