
     RDKit          3D

  0  0  0  0  0  0  0  0  0  0999 V3000
M  V30 BEGIN CTAB
M  V30 COUNTS 21 21 0 0 0
M  V30 BEGIN ATOM
M  V30 1 Cl 4.34823 -1.2399 0.0734381 0
M  V30 2 C 2.5773 -1.39686 0.0975562 0
M  V30 3 C 1.92012 -0.0909956 0.00192987 0
M  V30 4 O 2.67577 0.930817 -0.0754431 0
M  V30 5 C 0.490967 0.120908 -0.0109606 0
M  V30 6 C -0.0310532 1.3986 -0.103147 0
M  V30 7 N 0.869625 2.47726 -0.182652 0
M  V30 8 C -1.37736 1.65753 -0.120273 0
M  V30 9 C -2.2898 0.628126 -0.0443404 0
M  V30 10 C -1.7847 -0.651367 0.0479789 0
M  V30 11 C -0.419889 -0.91019 0.0650689 0
M  V30 12 F 0.0148479 -2.17861 0.155993 0
M  V30 13 N -2.73281 -1.72549 0.127196 0
M  V30 14 H 2.32552 -2.08676 -0.753432 0
M  V30 15 H 2.32134 -1.94857 1.03492 0
M  V30 16 H 1.19066 2.91938 0.704224 0
M  V30 17 H 1.18268 2.79502 -1.1179 0
M  V30 18 H -1.79222 2.66931 -0.193274 0
M  V30 19 H -3.36367 0.807958 -0.0560371 0
M  V30 20 H -3.2528 -1.8306 1.02599 0
M  V30 21 H -2.87275 -2.34557 -0.676831 0
M  V30 END ATOM
M  V30 BEGIN BOND
M  V30 1 1 1 2
M  V30 2 1 2 3
M  V30 3 2 3 4
M  V30 4 1 3 5
M  V30 5 2 5 6
M  V30 6 1 6 7
M  V30 7 1 6 8
M  V30 8 2 8 9
M  V30 9 1 9 10
M  V30 10 2 10 11
M  V30 11 1 11 12
M  V30 12 1 10 13
M  V30 13 1 11 5
M  V30 14 1 2 14
M  V30 15 1 2 15
M  V30 16 1 7 16
M  V30 17 1 7 17
M  V30 18 1 8 18
M  V30 19 1 9 19
M  V30 20 1 13 20
M  V30 21 1 13 21
M  V30 END BOND
M  V30 END CTAB
M  END
