
     RDKit          3D

  0  0  0  0  0  0  0  0  0  0999 V3000
M  V30 BEGIN CTAB
M  V30 COUNTS 23 24 0 0 0
M  V30 BEGIN ATOM
M  V30 1 N -1.60949 -1.16594 0.721991 0
M  V30 2 C -1.67053 0.234655 0.870609 0 CFG=2
M  V30 3 C -2.66724 0.759867 -0.171367 0
M  V30 4 C -1.71119 0.93786 -1.35595 0
M  V30 5 O -0.639322 1.5749 -0.736732 0
M  V30 6 C -0.432233 0.975227 0.479066 0 CFG=2
M  V30 7 C 0.770172 0.123585 0.406374 0
M  V30 8 N 0.998621 -1.11356 0.836723 0
M  V30 9 N 2.2361 -1.4718 0.547884 0
M  V30 10 C 2.83112 -0.441563 -0.0876766 0
M  V30 11 N 1.91642 0.53269 -0.167209 0
M  V30 12 N 4.15482 -0.359941 -0.58862 0
M  V30 13 H -1.45537 -1.51086 -0.21803 0
M  V30 14 H -2.43075 -1.60831 1.13756 0
M  V30 15 H -2.04628 0.496978 1.88758 0
M  V30 16 H -3.01242 1.74702 0.154025 0
M  V30 17 H -3.45632 0.0358508 -0.377868 0
M  V30 18 H -2.18766 1.57277 -2.11412 0
M  V30 19 H -1.36249 -0.0339559 -1.72749 0
M  V30 20 H -0.251142 1.75899 1.26157 0
M  V30 21 H 2.70693 -2.3728 0.75383 0
M  V30 22 H 4.37855 -0.081057 -1.56187 0
M  V30 23 H 4.9397 -0.590595 0.0497153 0
M  V30 END ATOM
M  V30 BEGIN BOND
M  V30 1 1 1 2
M  V30 2 1 2 3
M  V30 3 1 3 4
M  V30 4 1 4 5
M  V30 5 1 5 6
M  V30 6 1 6 7
M  V30 7 2 7 8
M  V30 8 1 8 9
M  V30 9 1 9 10
M  V30 10 2 10 11
M  V30 11 1 10 12
M  V30 12 1 6 2
M  V30 13 1 11 7
M  V30 14 1 1 13
M  V30 15 1 1 14
M  V30 16 1 2 15 CFG=1
M  V30 17 1 3 16
M  V30 18 1 3 17
M  V30 19 1 4 18
M  V30 20 1 4 19
M  V30 21 1 6 20 CFG=1
M  V30 22 1 9 21
M  V30 23 1 12 22
M  V30 24 1 12 23
M  V30 END BOND
M  V30 END CTAB
M  END
