
     RDKit          3D

  0  0  0  0  0  0  0  0  0  0999 V3000
M  V30 BEGIN CTAB
M  V30 COUNTS 35 37 0 0 0
M  V30 BEGIN ATOM
M  V30 1 C 4.23688 2.17836 -0.936285 0
M  V30 2 N 4.02991 0.959926 -0.155695 0
M  V30 3 N 4.98294 0.292856 0.433673 0
M  V30 4 C 4.49982 -0.784898 1.07854 0
M  V30 5 C 3.13631 -0.795509 0.878453 0
M  V30 6 C 2.87349 0.320791 0.0945616 0
M  V30 7 N 1.61846 0.548584 -0.247947 0
M  V30 8 C 0.612969 -0.25023 0.131644 0
M  V30 9 N -0.724372 0.0717119 -0.286102 0
M  V30 10 C -1.82919 -0.769468 0.106565 0
M  V30 11 C -3.14537 -0.261491 -0.428574 0
M  V30 12 N -4.29239 -1.04928 -0.0789088 0
M  V30 13 C -3.32216 1.23432 -0.166877 0
M  V30 14 C -3.72905 1.37613 -1.61799 0
M  V30 15 C -3.0636 0.0612132 -1.89973 0
M  V30 16 N 0.873497 -1.31932 0.883725 0
M  V30 17 C 2.10887 -1.63325 1.28065 0
M  V30 18 N 2.43159 -2.76021 2.08076 0
M  V30 19 H 3.33531 2.4933 -1.46138 0
M  V30 20 H 5.12757 2.07221 -1.61637 0
M  V30 21 H 4.51701 3.00483 -0.232194 0
M  V30 22 H 5.02225 -1.53719 1.65929 0
M  V30 23 H -0.853472 0.914234 -0.867612 0
M  V30 24 H -1.84715 -0.844152 1.21757 0
M  V30 25 H -1.69783 -1.8059 -0.291229 0
M  V30 26 H -5.13674 -0.565005 -0.460909 0
M  V30 27 H -4.38923 -1.11631 0.956389 0
M  V30 28 H -2.41259 1.74739 0.141512 0
M  V30 29 H -4.22016 1.45806 0.467935 0
M  V30 30 H -4.82013 1.41699 -1.80113 0
M  V30 31 H -3.24328 2.26691 -2.07457 0
M  V30 32 H -3.7215 -0.613909 -2.48377 0
M  V30 33 H -2.04298 0.0975327 -2.30733 0
M  V30 34 H 3.19705 -2.76522 2.79003 0
M  V30 35 H 1.88729 -3.64401 1.97169 0
M  V30 END ATOM
M  V30 BEGIN BOND
M  V30 1 1 1 2
M  V30 2 1 2 3
M  V30 3 2 3 4
M  V30 4 1 4 5
M  V30 5 2 5 6
M  V30 6 1 6 7
M  V30 7 2 7 8
M  V30 8 1 8 9
M  V30 9 1 9 10
M  V30 10 1 10 11
M  V30 11 1 11 12
M  V30 12 1 11 13
M  V30 13 1 13 14
M  V30 14 1 14 15
M  V30 15 1 8 16
M  V30 16 2 16 17
M  V30 17 1 17 18
M  V30 18 1 6 2
M  V30 19 1 15 11
M  V30 20 1 17 5
M  V30 21 1 1 19
M  V30 22 1 1 20
M  V30 23 1 1 21
M  V30 24 1 4 22
M  V30 25 1 9 23
M  V30 26 1 10 24
M  V30 27 1 10 25
M  V30 28 1 12 26
M  V30 29 1 12 27
M  V30 30 1 13 28
M  V30 31 1 13 29
M  V30 32 1 14 30
M  V30 33 1 14 31
M  V30 34 1 15 32
M  V30 35 1 15 33
M  V30 36 1 18 34
M  V30 37 1 18 35
M  V30 END BOND
M  V30 END CTAB
M  END
