
     RDKit          3D

  0  0  0  0  0  0  0  0  0  0999 V3000
M  V30 BEGIN CTAB
M  V30 COUNTS 21 22 0 0 0
M  V30 BEGIN ATOM
M  V30 1 N 3.05438 0.533144 0.112871 0
M  V30 2 C 1.6283 0.611892 0.0719005 0
M  V30 3 C 0.997191 1.84884 0.10311 0
M  V30 4 C -0.371588 1.9426 0.0645396 0
M  V30 5 C -1.18198 0.819629 -0.00665782 0
M  V30 6 C -0.516696 -0.395604 -0.0359173 0
M  V30 7 C 0.850049 -0.50726 0.00185347 0
M  V30 8 N 1.45299 -1.79195 -0.0321949 0
M  V30 9 C -1.34144 -1.52502 -0.107834 0
M  V30 10 C -2.71442 -1.42766 -0.146392 0
M  V30 11 N -3.29464 -0.219696 -0.114795 0
M  V30 12 C -2.5576 0.908722 -0.0456366 0
M  V30 13 H 3.55846 0.252953 -0.73904 0
M  V30 14 H 3.53349 0.758832 0.992313 0
M  V30 15 H 1.60862 2.71718 0.157689 0
M  V30 16 H -0.896271 2.89532 0.0873822 0
M  V30 17 H 1.84002 -2.15102 0.867729 0
M  V30 18 H 1.52627 -2.37354 -0.878632 0
M  V30 19 H -0.831475 -2.47405 -0.130968 0
M  V30 20 H -3.33485 -2.31072 -0.201868 0
M  V30 21 H -3.00879 1.8874 -0.0194502 0
M  V30 END ATOM
M  V30 BEGIN BOND
M  V30 1 1 1 2
M  V30 2 2 2 3
M  V30 3 1 3 4
M  V30 4 2 4 5
M  V30 5 1 5 6
M  V30 6 2 6 7
M  V30 7 1 7 8
M  V30 8 1 6 9
M  V30 9 2 9 10
M  V30 10 1 10 11
M  V30 11 2 11 12
M  V30 12 1 7 2
M  V30 13 1 12 5
M  V30 14 1 1 13
M  V30 15 1 1 14
M  V30 16 1 3 15
M  V30 17 1 4 16
M  V30 18 1 8 17
M  V30 19 1 8 18
M  V30 20 1 9 19
M  V30 21 1 10 20
M  V30 22 1 12 21
M  V30 END BOND
M  V30 END CTAB
M  END
