
     RDKit          3D

  0  0  0  0  0  0  0  0  0  0999 V3000
M  V30 BEGIN CTAB
M  V30 COUNTS 43 45 0 0 0
M  V30 BEGIN ATOM
M  V30 1 O -0.871977 -2.984 -0.591921 0
M  V30 2 C -1.35104 -2.41513 0.416026 0
M  V30 3 N -0.835233 -1.23121 0.916138 0
M  V30 4 C 0.244825 -0.484778 0.400058 0
M  V30 5 C 0.737169 -0.579541 -0.871585 0
M  V30 6 C 1.84123 0.187809 -1.28443 0
M  V30 7 C 2.47342 1.0639 -0.43566 0
M  V30 8 C 1.97329 1.15455 0.839634 0
M  V30 9 C 0.899304 0.414132 1.25706 0
M  V30 10 O 3.57246 1.82789 -0.847578 0
M  V30 11 C 4.85362 1.2673 -0.69178 0
M  V30 12 C 5.97923 1.96491 -1.07914 0
M  V30 13 C 7.22673 1.40776 -0.923149 0
M  V30 14 C 7.36873 0.148133 -0.37872 0
M  V30 15 C 6.23493 -0.544223 0.00698488 0
M  V30 16 C 4.98654 0.00607662 -0.146286 0
M  V30 17 C -2.51628 -3.1128 1.03985 0
M  V30 18 S -3.37332 -1.9732 2.14327 0
M  V30 19 C -4.23961 -0.759457 1.1261 0
M  V30 20 N -3.73488 0.386631 0.718369 0
M  V30 21 C -4.39859 1.27037 -0.0403251 0
M  V30 22 N -3.81672 2.49657 -0.461782 0
M  V30 23 C -5.6928 0.96102 -0.418801 0
M  V30 24 C -6.22547 -0.241531 0.00823412 0
M  V30 25 N -5.51671 -1.09078 0.767276 0
M  V30 26 N -7.55923 -0.620439 -0.348725 0
M  V30 27 H -1.30703 -0.855249 1.81156 0
M  V30 28 H 0.26134 -1.24361 -1.57173 0
M  V30 29 H 2.19957 0.0795211 -2.30206 0
M  V30 30 H 2.44542 1.82562 1.52333 0
M  V30 31 H 0.519175 0.497578 2.26444 0
M  V30 32 H 5.86031 2.96632 -1.51325 0
M  V30 33 H 8.09907 1.97436 -1.2362 0
M  V30 34 H 8.34991 -0.315923 -0.244819 0
M  V30 35 H 6.31828 -1.54883 0.444081 0
M  V30 36 H 4.09435 -0.55959 0.16574 0
M  V30 37 H -3.25263 -3.39388 0.232313 0
M  V30 38 H -2.1889 -4.0019 1.61965 0
M  V30 39 H -2.84261 2.5879 -0.813803 0
M  V30 40 H -4.39745 3.35293 -0.416688 0
M  V30 41 H -6.30009 1.60857 -1.0244 0
M  V30 42 H -8.31168 -0.37782 0.320723 0
M  V30 43 H -7.80665 -1.11597 -1.22467 0
M  V30 END ATOM
M  V30 BEGIN BOND
M  V30 1 2 1 2
M  V30 2 1 2 3
M  V30 3 1 3 4
M  V30 4 2 4 5
M  V30 5 1 5 6
M  V30 6 2 6 7
M  V30 7 1 7 8
M  V30 8 2 8 9
M  V30 9 1 7 10
M  V30 10 1 10 11
M  V30 11 2 11 12
M  V30 12 1 12 13
M  V30 13 2 13 14
M  V30 14 1 14 15
M  V30 15 2 15 16
M  V30 16 1 2 17
M  V30 17 1 17 18
M  V30 18 1 18 19
M  V30 19 2 19 20
M  V30 20 1 20 21
M  V30 21 1 21 22
M  V30 22 2 21 23
M  V30 23 1 23 24
M  V30 24 2 24 25
M  V30 25 1 24 26
M  V30 26 1 9 4
M  V30 27 1 16 11
M  V30 28 1 25 19
M  V30 29 1 3 27
M  V30 30 1 5 28
M  V30 31 1 6 29
M  V30 32 1 8 30
M  V30 33 1 9 31
M  V30 34 1 12 32
M  V30 35 1 13 33
M  V30 36 1 14 34
M  V30 37 1 15 35
M  V30 38 1 16 36
M  V30 39 1 17 37
M  V30 40 1 17 38
M  V30 41 1 22 39
M  V30 42 1 22 40
M  V30 43 1 23 41
M  V30 44 1 26 42
M  V30 45 1 26 43
M  V30 END BOND
M  V30 END CTAB
M  END
