
     RDKit          3D

  0  0  0  0  0  0  0  0  0  0999 V3000
M  V30 BEGIN CTAB
M  V30 COUNTS 30 31 0 0 0
M  V30 BEGIN ATOM
M  V30 1 N 5.48067 0.541127 -0.0546044 0
M  V30 2 C 4.40136 0.18183 0.110999 0
M  V30 3 C 3.02066 -0.270891 0.317271 0
M  V30 4 C 2.06565 0.414 -0.245866 0
M  V30 5 C 0.634744 0.0849351 -0.136569 0
M  V30 6 C -0.32415 0.956048 0.338835 0
M  V30 7 C -0.215582 2.25627 0.85517 0
M  V30 8 C -1.33621 2.91949 1.26914 0
M  V30 9 C -2.58045 2.31669 1.18237 0
M  V30 10 C -2.63539 1.04072 0.669069 0
M  V30 11 N -1.51401 0.375231 0.254218 0
M  V30 12 C -1.35608 -0.87917 -0.275208 0
M  V30 13 C -0.0148012 -1.0629 -0.520537 0
M  V30 14 N 0.60781 -2.20455 -1.09553 0
M  V30 15 C -2.47098 -1.76654 -0.504118 0
M  V30 16 C -2.36607 -2.98593 -0.955762 0
M  V30 17 N 2.34084 1.55753 -1.03622 0
M  V30 18 C 2.79826 -1.40566 1.15711 0
M  V30 19 N 2.63831 -2.33181 1.87214 0
M  V30 20 H 0.785289 2.68703 0.904797 0
M  V30 21 H -1.23792 3.92189 1.66495 0
M  V30 22 H -3.43886 2.85862 1.51281 0
M  V30 23 H -3.60276 0.530703 0.584721 0
M  V30 24 H 0.885349 -2.13653 -2.09557 0
M  V30 25 H 0.773081 -3.0608 -0.534336 0
M  V30 26 H -3.48403 -1.3761 -0.281256 0
M  V30 27 H -1.45443 -3.48431 -1.21351 0
M  V30 28 H -3.27733 -3.60465 -1.10279 0
M  V30 29 H 2.24506 1.49649 -2.05687 0
M  V30 30 H 2.63195 2.43122 -0.584854 0
M  V30 END ATOM
M  V30 BEGIN BOND
M  V30 1 3 1 2
M  V30 2 1 2 3
M  V30 3 2 3 4 CFG=2
M  V30 4 1 4 5
M  V30 5 2 5 6
M  V30 6 1 6 7
M  V30 7 2 7 8
M  V30 8 1 8 9
M  V30 9 2 9 10
M  V30 10 1 10 11
M  V30 11 1 11 12
M  V30 12 2 12 13
M  V30 13 1 13 14
M  V30 14 1 12 15
M  V30 15 2 15 16 CFG=2
M  V30 16 1 4 17
M  V30 17 1 3 18
M  V30 18 3 18 19
M  V30 19 1 13 5
M  V30 20 1 11 6
M  V30 21 1 7 20
M  V30 22 1 8 21
M  V30 23 1 9 22
M  V30 24 1 10 23
M  V30 25 1 14 24
M  V30 26 1 14 25
M  V30 27 1 15 26
M  V30 28 1 16 27
M  V30 29 1 16 28
M  V30 30 1 17 29
M  V30 31 1 17 30
M  V30 END BOND
M  V30 END CTAB
M  END
