
     RDKit          3D

  0  0  0  0  0  0  0  0  0  0999 V3000
M  V30 BEGIN CTAB
M  V30 COUNTS 23 24 0 0 0
M  V30 BEGIN ATOM
M  V30 1 N 4.55895 1.33846 -0.875972 0
M  V30 2 N 3.19108 1.39872 -0.710339 0
M  V30 3 C 2.46818 0.238089 -0.392095 0
M  V30 4 O 3.07974 -0.842505 -0.262299 0
M  V30 5 C 0.996852 0.307733 -0.214861 0
M  V30 6 C 0.146732 -0.719087 0.0940058 0
M  V30 7 N 0.696436 -2.06319 0.282833 0
M  V30 8 C -1.1697 -0.408805 0.204595 0
M  V30 9 C -1.52755 0.888019 5.57143e-05 0
M  V30 10 S -0.0390623 1.65133 -0.340565 0
M  V30 11 C -2.85817 1.3295 0.0870991 0
M  V30 12 C -3.87569 0.451426 0.388878 0
M  V30 13 C -3.51516 -0.853714 0.59468 0
M  V30 14 C -2.22696 -1.28163 0.51051 0
M  V30 15 H 5.0885 1.51982 0.0238495 0
M  V30 16 H 4.82882 0.338895 -1.12208 0
M  V30 17 H 2.69294 2.29618 -0.819401 0
M  V30 18 H 0.314543 -2.8103 -0.320203 0
M  V30 19 H 1.42982 -2.26215 0.982304 0
M  V30 20 H -3.02416 2.37061 -0.0928274 0
M  V30 21 H -4.90556 0.792112 0.456435 0
M  V30 22 H -4.30995 -1.56744 0.835799 0
M  V30 23 H -2.04063 -2.33205 0.689599 0
M  V30 END ATOM
M  V30 BEGIN BOND
M  V30 1 1 1 2
M  V30 2 1 2 3
M  V30 3 2 3 4
M  V30 4 1 3 5
M  V30 5 2 5 6
M  V30 6 1 6 7
M  V30 7 1 6 8
M  V30 8 2 8 9
M  V30 9 1 9 10
M  V30 10 1 9 11
M  V30 11 2 11 12
M  V30 12 1 12 13
M  V30 13 2 13 14
M  V30 14 1 10 5
M  V30 15 1 14 8
M  V30 16 1 1 15
M  V30 17 1 1 16
M  V30 18 1 2 17
M  V30 19 1 7 18
M  V30 20 1 7 19
M  V30 21 1 11 20
M  V30 22 1 12 21
M  V30 23 1 13 22
M  V30 24 1 14 23
M  V30 END BOND
M  V30 END CTAB
M  END
