
     RDKit          3D

  0  0  0  0  0  0  0  0  0  0999 V3000
M  V30 BEGIN CTAB
M  V30 COUNTS 27 27 0 0 0
M  V30 BEGIN ATOM
M  V30 1 N -0.773619 1.86599 1.25327 0
M  V30 2 C -0.685261 0.515343 1.70525 0
M  V30 3 C -0.796422 -0.500048 0.604388 0
M  V30 4 C -2.11264 -0.403574 -0.139789 0
M  V30 5 C -1.85307 -1.46527 -1.22013 0
M  V30 6 C -0.479238 -1.08584 -1.66593 0
M  V30 7 C 0.168837 -0.302776 -0.516607 0
M  V30 8 N 1.48218 -0.823297 -0.252869 0
M  V30 9 S 2.59781 0.48199 -0.445393 0
M  V30 10 O 3.91243 -0.0342735 -0.999259 0
M  V30 11 O 2.03307 1.4089 -1.48496 0
M  V30 12 N 2.87646 1.34171 0.998753 0
M  V30 13 H -1.56135 1.97412 0.599104 0
M  V30 14 H -0.960658 2.5071 2.0565 0
M  V30 15 H 0.209121 0.302366 2.30381 0
M  V30 16 H -1.5618 0.337827 2.38742 0
M  V30 17 H -0.721519 -1.53058 1.00041 0
M  V30 18 H -2.2305 0.545023 -0.69047 0
M  V30 19 H -2.98059 -0.665328 0.48481 0
M  V30 20 H -2.61222 -1.413 -2.02012 0
M  V30 21 H -1.81098 -2.42618 -0.698905 0
M  V30 22 H 0.167571 -1.97754 -1.88633 0
M  V30 23 H -0.551356 -0.437482 -2.54939 0
M  V30 24 H 0.174787 0.788537 -0.774366 0
M  V30 25 H 1.71381 -1.5374 -0.970622 0
M  V30 26 H 2.4909 0.875175 1.82488 0
M  V30 27 H 3.86425 1.65852 1.09654 0
M  V30 END ATOM
M  V30 BEGIN BOND
M  V30 1 1 1 2
M  V30 2 1 2 3
M  V30 3 1 3 4
M  V30 4 1 4 5
M  V30 5 1 5 6
M  V30 6 1 6 7
M  V30 7 1 7 8
M  V30 8 1 8 9
M  V30 9 2 9 10
M  V30 10 2 9 11
M  V30 11 1 9 12
M  V30 12 1 7 3
M  V30 13 1 1 13
M  V30 14 1 1 14
M  V30 15 1 2 15
M  V30 16 1 2 16
M  V30 17 1 3 17
M  V30 18 1 4 18
M  V30 19 1 4 19
M  V30 20 1 5 20
M  V30 21 1 5 21
M  V30 22 1 6 22
M  V30 23 1 6 23
M  V30 24 1 7 24
M  V30 25 1 8 25
M  V30 26 1 12 26
M  V30 27 1 12 27
M  V30 END BOND
M  V30 END CTAB
M  END
