
     RDKit          3D

  0  0  0  0  0  0  0  0  0  0999 V3000
M  V30 BEGIN CTAB
M  V30 COUNTS 31 32 0 0 0
M  V30 BEGIN ATOM
M  V30 1 C -0.933816 -2.00882 0.0791106 0
M  V30 2 C -1.23423 -0.542484 0.429792 0
M  V30 3 C -1.08938 -0.447538 1.96147 0
M  V30 4 N -2.56938 -0.205389 0.0869774 0
M  V30 5 C -2.93211 0.779986 -0.615858 0
M  V30 6 N -4.31474 1.04496 -0.908552 0
M  V30 7 N -1.94211 1.65995 -1.18396 0
M  V30 8 C -0.696246 1.4183 -0.966283 0
M  V30 9 N 0.300991 2.28259 -1.51786 0
M  V30 10 N -0.281478 0.286812 -0.219404 0
M  V30 11 C 1.14181 0.0279194 -0.174848 0
M  V30 12 C 1.76529 -0.640683 -1.2013 0
M  V30 13 Cl 0.946003 -1.17381 -2.65496 0
M  V30 14 C 3.13764 -0.896991 -1.11184 0
M  V30 15 C 3.89176 -0.503525 -0.0321484 0
M  V30 16 C 3.25742 0.174269 1.00521 0
M  V30 17 C 1.90923 0.417013 0.900952 0
M  V30 18 H -1.42934 -2.59994 0.915346 0
M  V30 19 H -1.37446 -2.27813 -0.88172 0
M  V30 20 H 0.125462 -2.25564 0.159642 0
M  V30 21 H -1.92195 -1.05265 2.36757 0
M  V30 22 H -0.131929 -0.827138 2.30232 0
M  V30 23 H -1.22347 0.622591 2.1996 0
M  V30 24 H -4.71926 0.63667 -1.76001 0
M  V30 25 H -4.88414 1.6276 -0.282642 0
M  V30 26 H 0.718262 3.00728 -0.905931 0
M  V30 27 H 0.587493 2.17625 -2.49949 0
M  V30 28 H 3.63653 -1.43198 -1.93145 0
M  V30 29 H 4.95965 -0.708678 0.0264846 0
M  V30 30 H 3.87578 0.468594 1.83506 0
M  V30 31 H 1.42474 0.942612 1.70859 0
M  V30 END ATOM
M  V30 BEGIN BOND
M  V30 1 1 1 2
M  V30 2 1 2 3
M  V30 3 1 2 4
M  V30 4 2 4 5
M  V30 5 1 5 6
M  V30 6 1 5 7
M  V30 7 2 7 8
M  V30 8 1 8 9
M  V30 9 1 8 10
M  V30 10 1 10 11
M  V30 11 2 11 12
M  V30 12 1 12 13
M  V30 13 1 12 14
M  V30 14 2 14 15
M  V30 15 1 15 16
M  V30 16 2 16 17
M  V30 17 1 10 2
M  V30 18 1 17 11
M  V30 19 1 1 18
M  V30 20 1 1 19
M  V30 21 1 1 20
M  V30 22 1 3 21
M  V30 23 1 3 22
M  V30 24 1 3 23
M  V30 25 1 6 24
M  V30 26 1 6 25
M  V30 27 1 9 26
M  V30 28 1 9 27
M  V30 29 1 14 28
M  V30 30 1 15 29
M  V30 31 1 16 30
M  V30 32 1 17 31
M  V30 END BOND
M  V30 END CTAB
M  END
