
     RDKit          3D

  0  0  0  0  0  0  0  0  0  0999 V3000
M  V30 BEGIN CTAB
M  V30 COUNTS 40 42 0 0 0
M  V30 BEGIN ATOM
M  V30 1 N 7.0435 -1.42524 2.00127 0
M  V30 2 C 6.7426 -0.627729 0.845175 0
M  V30 3 N 7.73095 -0.191404 0.171449 0
M  V30 4 C 5.39271 -0.329581 0.4561 0
M  V30 5 C 4.3336 -0.826414 1.22662 0
M  V30 6 C 3.02361 -0.576458 0.903586 0
M  V30 7 C 2.68043 0.183869 -0.203976 0
M  V30 8 C 3.72597 0.669326 -0.955765 0
M  V30 9 C 5.04829 0.423302 -0.640354 0
M  V30 10 C 1.28957 0.451092 -0.54506 0
M  V30 11 C 0.165233 0.0391694 0.0872117 0
M  V30 12 C -0.930349 0.554426 -0.622119 0
M  V30 13 N -0.387082 1.22443 -1.60878 0
M  V30 14 O 0.886414 1.16287 -1.56141 0
M  V30 15 C -2.31406 0.333828 -0.252745 0
M  V30 16 C -2.58243 -0.312408 0.978325 0
M  V30 17 C -3.8523 -0.522406 1.44497 0
M  V30 18 C -4.92669 -0.0921033 0.694757 0
M  V30 19 C -4.70324 0.532484 -0.496715 0
M  V30 20 C -3.37169 0.747532 -0.97986 0
M  V30 21 N -3.3334 1.39307 -2.22212 0 CHG=1
M  V30 22 O -2.42542 1.22205 -3.18493 0 CHG=-1
M  V30 23 O -4.24607 2.24851 -2.46816 0
M  V30 24 C -6.29346 -0.298597 1.17303 0
M  V30 25 N -7.36735 0.166675 0.379943 0
M  V30 26 N -6.58343 -0.878493 2.28171 0
M  V30 27 H 7.50543 -2.34545 1.97173 0
M  V30 28 H 6.78282 -1.06562 2.96363 0
M  V30 29 H 7.66021 0.391198 -0.678131 0
M  V30 30 H 4.58363 -1.43054 2.10929 0
M  V30 31 H 2.19308 -0.965762 1.50526 0
M  V30 32 H 3.43991 1.27202 -1.83402 0
M  V30 33 H 5.81186 0.832558 -1.27354 0
M  V30 34 H 0.121551 -0.563663 0.956131 0
M  V30 35 H -1.77162 -0.655624 1.5815 0
M  V30 36 H -4.05372 -1.01355 2.3785 0
M  V30 37 H -5.54073 0.868815 -1.08227 0
M  V30 38 H -8.09266 0.76185 0.805834 0
M  V30 39 H -7.42678 -0.0860265 -0.61683 0
M  V30 40 H -5.95887 -1.27201 2.98005 0
M  V30 END ATOM
M  V30 BEGIN BOND
M  V30 1 1 1 2
M  V30 2 2 2 3 CFG=2
M  V30 3 1 2 4
M  V30 4 2 4 5
M  V30 5 1 5 6
M  V30 6 2 6 7
M  V30 7 1 7 8
M  V30 8 2 8 9
M  V30 9 1 7 10
M  V30 10 2 10 11
M  V30 11 1 11 12
M  V30 12 2 12 13
M  V30 13 1 13 14
M  V30 14 1 12 15
M  V30 15 2 15 16
M  V30 16 1 16 17
M  V30 17 2 17 18
M  V30 18 1 18 19
M  V30 19 2 19 20
M  V30 20 1 20 21
M  V30 21 1 21 22
M  V30 22 2 21 23
M  V30 23 1 18 24
M  V30 24 1 24 25
M  V30 25 2 24 26 CFG=2
M  V30 26 1 9 4
M  V30 27 1 14 10
M  V30 28 1 20 15
M  V30 29 1 1 27
M  V30 30 1 1 28
M  V30 31 1 3 29
M  V30 32 1 5 30
M  V30 33 1 6 31
M  V30 34 1 8 32
M  V30 35 1 9 33
M  V30 36 1 11 34
M  V30 37 1 16 35
M  V30 38 1 17 36
M  V30 39 1 19 37
M  V30 40 1 25 38
M  V30 41 1 25 39
M  V30 42 1 26 40
M  V30 END BOND
M  V30 END CTAB
M  END
