
     RDKit          3D

  0  0  0  0  0  0  0  0  0  0999 V3000
M  V30 BEGIN CTAB
M  V30 COUNTS 23 24 0 0 0
M  V30 BEGIN ATOM
M  V30 1 N -3.72544 -0.680602 -1.15388 0
M  V30 2 C -2.50517 -0.0421673 -0.79514 0
M  V30 3 C -1.7163 0.566851 -1.75017 0
M  V30 4 C -0.534096 1.18503 -1.40022 0
M  V30 5 C -0.163103 1.17893 -0.0802202 0
M  V30 6 N -0.951057 0.579083 0.822509 0
M  V30 7 C -2.10974 -0.035173 0.530197 0
M  V30 8 N -2.93844 -0.664281 1.46924 0
M  V30 9 S 1.33678 1.95389 0.420455 0
M  V30 10 C 2.70417 0.811732 0.368517 0
M  V30 11 N 3.97713 1.1039 0.692905 0
M  V30 12 C 4.76614 0.0352554 0.550313 0
M  V30 13 C 3.95996 -0.982248 0.115962 0
M  V30 14 N 2.71321 -0.49149 0.0118879 0
M  V30 15 H -3.66562 -1.4706 -1.83012 0
M  V30 16 H -4.64938 -0.392459 -0.773718 0
M  V30 17 H -2.02636 0.563072 -2.7997 0
M  V30 18 H 0.0594692 1.65374 -2.182 0
M  V30 19 H -3.27144 -0.113035 2.3093 0
M  V30 20 H -3.27164 -1.64791 1.4263 0
M  V30 21 H 5.83094 -0.075533 0.723989 0
M  V30 22 H 4.29751 -1.99525 -0.0978792 0
M  V30 23 H 1.88248 -1.04075 -0.298404 0
M  V30 END ATOM
M  V30 BEGIN BOND
M  V30 1 1 1 2
M  V30 2 2 2 3
M  V30 3 1 3 4
M  V30 4 2 4 5
M  V30 5 1 5 6
M  V30 6 2 6 7
M  V30 7 1 7 8
M  V30 8 1 5 9
M  V30 9 1 9 10
M  V30 10 2 10 11
M  V30 11 1 11 12
M  V30 12 2 12 13
M  V30 13 1 13 14
M  V30 14 1 7 2
M  V30 15 1 14 10
M  V30 16 1 1 15
M  V30 17 1 1 16
M  V30 18 1 3 17
M  V30 19 1 4 18
M  V30 20 1 8 19
M  V30 21 1 8 20
M  V30 22 1 12 21
M  V30 23 1 13 22
M  V30 24 1 14 23
M  V30 END BOND
M  V30 END CTAB
M  END
