
     RDKit          3D

  0  0  0  0  0  0  0  0  0  0999 V3000
M  V30 BEGIN CTAB
M  V30 COUNTS 32 33 0 0 0
M  V30 BEGIN ATOM
M  V30 1 O 0.00236007 -0.706505 -0.71979 0
M  V30 2 C 0.00047613 0.182127 0.143485 0
M  V30 3 N 1.21389 0.646333 0.682961 0
M  V30 4 C 2.52254 0.238067 0.381687 0
M  V30 5 C 2.86193 -0.710792 -0.51516 0
M  V30 6 C 4.19016 -1.08098 -0.777964 0
M  V30 7 C 5.22846 -0.479136 -0.117814 0
M  V30 8 C 4.90162 0.49028 0.799911 0
M  V30 9 C 3.60089 0.845558 1.05024 0
M  V30 10 Cl 3.22128 2.08277 2.22422 0
M  V30 11 N 6.59484 -0.841502 -0.370236 0
M  V30 12 N -1.22586 0.728224 0.584708 0
M  V30 13 C -2.52373 0.376795 0.15901 0
M  V30 14 C -2.84755 -0.780417 -0.509621 0
M  V30 15 C -4.15286 -1.0724 -0.931594 0
M  V30 16 C -5.16173 -0.176931 -0.674139 0
M  V30 17 C -4.83475 0.983953 -0.00222867 0
M  V30 18 C -3.5728 1.27921 0.412135 0
M  V30 19 Cl -6.09878 2.17142 0.354896 0
M  V30 20 N -6.47301 -0.469219 -1.09751 0
M  V30 21 H 1.09198 1.42547 1.4311 0
M  V30 22 H 2.11804 -1.25417 -1.09707 0
M  V30 23 H 4.40899 -1.8572 -1.51591 0
M  V30 24 H 5.7222 0.982993 1.3382 0
M  V30 25 H 7.2361 -0.252097 -0.935828 0
M  V30 26 H 6.89986 -1.7498 0.0605416 0
M  V30 27 H -1.16635 1.48301 1.31969 0
M  V30 28 H -2.1032 -1.5267 -0.727645 0
M  V30 29 H -4.33741 -1.99268 -1.44882 0
M  V30 30 H -3.33476 2.2097 0.944982 0
M  V30 31 H -7.18196 -0.681756 -0.347795 0
M  V30 32 H -6.80083 -0.493613 -2.07725 0
M  V30 END ATOM
M  V30 BEGIN BOND
M  V30 1 2 1 2
M  V30 2 1 2 3
M  V30 3 1 3 4
M  V30 4 2 4 5
M  V30 5 1 5 6
M  V30 6 2 6 7
M  V30 7 1 7 8
M  V30 8 2 8 9
M  V30 9 1 9 10
M  V30 10 1 7 11
M  V30 11 1 2 12
M  V30 12 1 12 13
M  V30 13 2 13 14
M  V30 14 1 14 15
M  V30 15 2 15 16
M  V30 16 1 16 17
M  V30 17 2 17 18
M  V30 18 1 17 19
M  V30 19 1 16 20
M  V30 20 1 9 4
M  V30 21 1 18 13
M  V30 22 1 3 21
M  V30 23 1 5 22
M  V30 24 1 6 23
M  V30 25 1 8 24
M  V30 26 1 11 25
M  V30 27 1 11 26
M  V30 28 1 12 27
M  V30 29 1 14 28
M  V30 30 1 15 29
M  V30 31 1 18 30
M  V30 32 1 20 31
M  V30 33 1 20 32
M  V30 END BOND
M  V30 END CTAB
M  END
