
     RDKit          3D

  0  0  0  0  0  0  0  0  0  0999 V3000
M  V30 BEGIN CTAB
M  V30 COUNTS 28 28 0 0 0
M  V30 BEGIN ATOM
M  V30 1 C 2.85688 1.73598 0.748383 0
M  V30 2 C 2.89605 0.446425 -0.0626328 0
M  V30 3 C 1.72841 -0.45308 0.311222 0
M  V30 4 S 1.85151 -1.94584 -0.688755 0
M  V30 5 C 0.325761 -2.01204 -1.70361 0
M  V30 6 C -0.791338 -1.81822 -0.689586 0
M  V30 7 N -0.714734 -0.496719 -0.110733 0
M  V30 8 C 0.431983 0.259181 0.204985 0
M  V30 9 C -1.97624 0.110024 0.173283 0
M  V30 10 N -2.52215 0.953355 -0.640363 0
M  V30 11 N -3.74423 1.5125 -0.319036 0
M  V30 12 N -2.58753 -0.267904 1.39447 0
M  V30 13 H 3.47603 2.48615 0.194911 0
M  V30 14 H 3.40548 1.55928 1.70398 0
M  V30 15 H 1.84074 2.09785 0.925506 0
M  V30 16 H 3.85663 -0.0535073 0.188773 0
M  V30 17 H 2.91086 0.673771 -1.14659 0
M  V30 18 H 1.8996 -0.749115 1.36744 0
M  V30 19 H 0.329183 -1.15496 -2.3787 0
M  V30 20 H 0.193864 -2.99009 -2.17853 0
M  V30 21 H -0.631873 -2.53668 0.148483 0
M  V30 22 H -1.72716 -1.98569 -1.22182 0
M  V30 23 H 0.55412 1.04935 -0.585249 0
M  V30 24 H 0.242194 0.845642 1.15177 0
M  V30 25 H -4.15972 1.57989 0.624355 0
M  V30 26 H -4.31804 1.9131 -1.10666 0
M  V30 27 H -2.8718 0.493583 2.03479 0
M  V30 28 H -2.7545 -1.25225 1.65992 0
M  V30 END ATOM
M  V30 BEGIN BOND
M  V30 1 1 1 2
M  V30 2 1 2 3
M  V30 3 1 3 4
M  V30 4 1 4 5
M  V30 5 1 5 6
M  V30 6 1 6 7
M  V30 7 1 7 8
M  V30 8 1 7 9
M  V30 9 2 9 10 CFG=2
M  V30 10 1 10 11
M  V30 11 1 9 12
M  V30 12 1 8 3
M  V30 13 1 1 13
M  V30 14 1 1 14
M  V30 15 1 1 15
M  V30 16 1 2 16
M  V30 17 1 2 17
M  V30 18 1 3 18
M  V30 19 1 5 19
M  V30 20 1 5 20
M  V30 21 1 6 21
M  V30 22 1 6 22
M  V30 23 1 8 23
M  V30 24 1 8 24
M  V30 25 1 11 25
M  V30 26 1 11 26
M  V30 27 1 12 27
M  V30 28 1 12 28
M  V30 END BOND
M  V30 END CTAB
M  END
