
     RDKit          3D

  0  0  0  0  0  0  0  0  0  0999 V3000
M  V30 BEGIN CTAB
M  V30 COUNTS 52 55 0 0 0
M  V30 BEGIN ATOM
M  V30 1 C -1.12107 5.94049 -0.506756 0
M  V30 2 C -1.12127 4.47494 -0.479394 0
M  V30 3 C -1.0218 3.79909 0.709162 0
M  V30 4 C -1.018 2.40181 0.782398 0
M  V30 5 C -1.11707 1.7076 -0.381538 0
M  V30 6 C -1.22107 2.34439 -1.6188 0
M  V30 7 C -1.22051 3.72431 -1.63631 0
M  V30 8 C -1.1012 0.261819 -0.418006 0
M  V30 9 N -2.12054 -0.449095 -1.02293 0
M  V30 10 N -1.8637 -1.7303 -0.93535 0
M  V30 11 C -0.703723 -1.89719 -0.291323 0
M  V30 12 C -0.19677 -0.641381 0.0477713 0
M  V30 13 C 1.06515 -0.368241 0.703497 0
M  V30 14 O 1.47849 0.789033 0.87926 0
M  V30 15 O 1.89067 -1.38125 1.17614 0
M  V30 16 C 3.11037 -1.23459 1.81281 0
M  V30 17 C 4.16772 -0.551836 1.03704 0
M  V30 18 N 4.42663 0.731091 1.32809 0
M  V30 19 C 5.35338 1.46966 0.708603 0
M  V30 20 N 5.61241 2.82934 1.03262 0
M  V30 21 N 6.06932 0.889859 -0.265898 0
M  V30 22 C 5.83885 -0.407784 -0.592071 0
M  V30 23 N 4.8895 -1.12431 0.0597846 0
M  V30 24 N 6.62822 -0.95222 -1.62564 0
M  V30 25 C -2.70204 -2.8085 -1.45379 0
M  V30 26 C -3.68714 -3.27174 -0.465777 0
M  V30 27 C -3.36268 -4.30428 0.412044 0
M  V30 28 C -4.30183 -4.72145 1.32916 0
M  V30 29 C -5.54333 -4.12533 1.37638 0
M  V30 30 C -5.84088 -3.09517 0.486828 0
M  V30 31 C -4.92275 -2.65428 -0.443314 0
M  V30 32 H -0.581215 6.26253 -1.43099 0
M  V30 33 H -2.14657 6.35225 -0.461064 0
M  V30 34 H -0.600307 6.32409 0.405125 0
M  V30 35 H -0.943487 4.35279 1.62293 0
M  V30 36 H -0.952176 1.91763 1.74085 0
M  V30 37 H -1.29929 1.78185 -2.53123 0
M  V30 38 H -1.29819 4.25217 -2.56128 0
M  V30 39 H -0.210061 -2.82296 -0.054305 0
M  V30 40 H 3.49979 -2.27443 2.01527 0
M  V30 41 H 3.04742 -0.766003 2.81779 0
M  V30 42 H 5.48029 3.21613 1.99183 0
M  V30 43 H 5.9492 3.47637 0.287223 0
M  V30 44 H 6.58256 -0.556365 -2.57961 0
M  V30 45 H 7.25916 -1.75016 -1.44238 0
M  V30 46 H -3.25496 -2.49401 -2.36592 0
M  V30 47 H -2.07751 -3.68416 -1.76386 0
M  V30 48 H -2.3827 -4.76796 0.367805 0
M  V30 49 H -4.06722 -5.53158 2.02838 0
M  V30 50 H -6.30568 -4.4343 2.09071 0
M  V30 51 H -6.83938 -2.64443 0.55393 0
M  V30 52 H -5.20299 -1.85396 -1.1086 0
M  V30 END ATOM
M  V30 BEGIN BOND
M  V30 1 1 1 2
M  V30 2 2 2 3
M  V30 3 1 3 4
M  V30 4 2 4 5
M  V30 5 1 5 6
M  V30 6 2 6 7
M  V30 7 1 5 8
M  V30 8 2 8 9
M  V30 9 1 9 10
M  V30 10 1 10 11
M  V30 11 2 11 12
M  V30 12 1 12 13
M  V30 13 2 13 14
M  V30 14 1 13 15
M  V30 15 1 15 16
M  V30 16 1 16 17
M  V30 17 2 17 18
M  V30 18 1 18 19
M  V30 19 1 19 20
M  V30 20 2 19 21
M  V30 21 1 21 22
M  V30 22 2 22 23
M  V30 23 1 22 24
M  V30 24 1 10 25
M  V30 25 1 25 26
M  V30 26 2 26 27
M  V30 27 1 27 28
M  V30 28 2 28 29
M  V30 29 1 29 30
M  V30 30 2 30 31
M  V30 31 1 7 2
M  V30 32 1 12 8
M  V30 33 1 23 17
M  V30 34 1 31 26
M  V30 35 1 1 32
M  V30 36 1 1 33
M  V30 37 1 1 34
M  V30 38 1 3 35
M  V30 39 1 4 36
M  V30 40 1 6 37
M  V30 41 1 7 38
M  V30 42 1 11 39
M  V30 43 1 16 40
M  V30 44 1 16 41
M  V30 45 1 20 42
M  V30 46 1 20 43
M  V30 47 1 24 44
M  V30 48 1 24 45
M  V30 49 1 25 46
M  V30 50 1 25 47
M  V30 51 1 27 48
M  V30 52 1 28 49
M  V30 53 1 29 50
M  V30 54 1 30 51
M  V30 55 1 31 52
M  V30 END BOND
M  V30 END CTAB
M  END
