
     RDKit          3D

  0  0  0  0  0  0  0  0  0  0999 V3000
M  V30 BEGIN CTAB
M  V30 COUNTS 35 36 0 0 0
M  V30 BEGIN ATOM
M  V30 1 N -4.46123 0.812636 1.20251 0
M  V30 2 C -3.62438 0.21299 0.225366 0
M  V30 3 C -4.09739 -0.193009 -1.00101 0
M  V30 4 N -3.27151 -0.74989 -1.87049 0
M  V30 5 C -1.98934 -0.918923 -1.56211 0
M  V30 6 C -1.42442 -0.530402 -0.325049 0
M  V30 7 C -2.25987 0.0444445 0.574754 0
M  V30 8 C -1.82058 0.586978 1.88805 0
M  V30 9 C -0.00116194 -0.704739 -0.159815 0
M  V30 10 C 0.648239 -0.84204 0.960984 0
M  V30 11 C 2.14462 -1.0039 0.859762 0
M  V30 12 C 2.77673 0.0409201 -0.00831498 0
M  V30 13 C 1.86577 0.4841 -1.12645 0
M  V30 14 C 0.899854 -0.682267 -1.40312 0
M  V30 15 C 3.18259 1.20793 0.874749 0
M  V30 16 N 3.99897 -0.470419 -0.621467 0
M  V30 17 H -4.49884 1.83931 1.34158 0
M  V30 18 H -5.05813 0.213568 1.80178 0
M  V30 19 H -5.15472 -0.0366716 -1.21181 0
M  V30 20 H -1.3266 -1.39938 -2.28219 0
M  V30 21 H -2.60821 1.3491 2.19562 0
M  V30 22 H -1.87635 -0.203839 2.65421 0
M  V30 23 H -0.861145 1.12907 1.8548 0
M  V30 24 H 0.161222 -0.88806 1.90601 0
M  V30 25 H 2.54026 -1.00829 1.88461 0
M  V30 26 H 2.38006 -1.99806 0.428364 0
M  V30 27 H 1.23375 1.32907 -0.775727 0
M  V30 28 H 2.4113 0.720719 -2.06117 0
M  V30 29 H 1.45829 -1.62866 -1.34473 0
M  V30 30 H 0.329115 -0.504583 -2.30277 0
M  V30 31 H 2.32549 1.76287 1.25538 0
M  V30 32 H 3.70187 0.753694 1.75738 0
M  V30 33 H 3.92443 1.85139 0.360322 0
M  V30 34 H 3.70741 -0.916824 -1.51965 0
M  V30 35 H 4.64392 0.341179 -0.752381 0
M  V30 END ATOM
M  V30 BEGIN BOND
M  V30 1 1 1 2
M  V30 2 2 2 3
M  V30 3 1 3 4
M  V30 4 2 4 5
M  V30 5 1 5 6
M  V30 6 2 6 7
M  V30 7 1 7 8
M  V30 8 1 6 9
M  V30 9 2 9 10
M  V30 10 1 10 11
M  V30 11 1 11 12
M  V30 12 1 12 13
M  V30 13 1 13 14
M  V30 14 1 12 15
M  V30 15 1 12 16
M  V30 16 1 7 2
M  V30 17 1 14 9
M  V30 18 1 1 17
M  V30 19 1 1 18
M  V30 20 1 3 19
M  V30 21 1 5 20
M  V30 22 1 8 21
M  V30 23 1 8 22
M  V30 24 1 8 23
M  V30 25 1 10 24
M  V30 26 1 11 25
M  V30 27 1 11 26
M  V30 28 1 13 27
M  V30 29 1 13 28
M  V30 30 1 14 29
M  V30 31 1 14 30
M  V30 32 1 15 31
M  V30 33 1 15 32
M  V30 34 1 15 33
M  V30 35 1 16 34
M  V30 36 1 16 35
M  V30 END BOND
M  V30 END CTAB
M  END
