
     RDKit          3D

  0  0  0  0  0  0  0  0  0  0999 V3000
M  V30 BEGIN CTAB
M  V30 COUNTS 47 50 0 0 0
M  V30 BEGIN ATOM
M  V30 1 C -0.59515 2.42244 1.05089 0
M  V30 2 C -0.526266 0.934098 1.33475 0
M  V30 3 N -0.0546371 0.231658 0.0889529 0
M  V30 4 C -1.05297 0.21703 -1.0041 0
M  V30 5 C -2.26675 -0.561682 -0.594111 0
M  V30 6 C -3.49947 0.0505903 -0.653794 0
M  V30 7 C -3.53758 1.36278 -0.965157 0
M  V30 8 C -4.86999 1.93689 -0.888851 0
M  V30 9 C -5.90528 1.22803 -0.530281 0
M  V30 10 C -5.88874 -0.121495 -0.212789 0
M  V30 11 C -4.62803 -0.687488 -0.289566 0
M  V30 12 C -4.54036 -2.00358 0.0988494 0
M  V30 13 C -3.33389 -2.60926 0.137817 0
M  V30 14 C -2.19964 -1.84169 -0.210636 0
M  V30 15 C 1.25718 -0.253182 0.117729 0
M  V30 16 C 2.34651 0.577557 -0.129052 0
M  V30 17 C 3.57772 0.0230837 -0.120082 0
M  V30 18 C 3.80048 -1.31158 0.116446 0
M  V30 19 C 2.72926 -2.15812 0.373036 0
M  V30 20 C 1.50192 -1.57515 0.369172 0
M  V30 21 N 5.04524 -1.82038 0.070443 0
M  V30 22 C 6.13336 -1.05247 -0.195566 0
M  V30 23 N 7.3699 -1.73815 -0.229448 0
M  V30 24 N 5.93663 0.249872 -0.419029 0
M  V30 25 C 4.70814 0.819359 -0.390927 0
M  V30 26 N 4.55477 2.19322 -0.557388 0
M  V30 27 H -1.66396 2.78023 1.1634 0
M  V30 28 H -0.0164423 3.04991 1.72141 0
M  V30 29 H -0.335102 2.67003 -0.0184542 0
M  V30 30 H 0.159198 0.773321 2.1607 0
M  V30 31 H -1.48792 0.513467 1.61852 0
M  V30 32 H -1.12775 1.06322 -1.60533 0
M  V30 33 H -0.538022 -0.557894 -1.72173 0
M  V30 34 H -2.78513 2.00468 -1.21069 0
M  V30 35 H -4.94704 3.0188 -1.09493 0
M  V30 36 H -6.91282 1.69236 -0.447699 0
M  V30 37 H -6.7745 -0.61712 0.0699836 0
M  V30 38 H -5.42566 -2.56653 0.383823 0
M  V30 39 H -3.21716 -3.66685 0.408073 0
M  V30 40 H -1.29759 -2.41295 -0.221366 0
M  V30 41 H 2.12577 1.61203 -0.321787 0
M  V30 42 H 2.92977 -3.1656 0.603342 0
M  V30 43 H 0.665211 -2.25209 0.647293 0
M  V30 44 H 7.46515 -2.47476 -0.957586 0
M  V30 45 H 8.12398 -1.48994 0.424899 0
M  V30 46 H 4.31611 2.71559 -1.42603 0
M  V30 47 H 4.68154 2.79772 0.314416 0
M  V30 END ATOM
M  V30 BEGIN BOND
M  V30 1 1 1 2
M  V30 2 1 2 3
M  V30 3 1 3 4
M  V30 4 1 4 5
M  V30 5 1 5 6
M  V30 6 2 6 7
M  V30 7 1 7 8
M  V30 8 2 8 9
M  V30 9 1 9 10
M  V30 10 2 10 11
M  V30 11 1 11 12
M  V30 12 2 12 13
M  V30 13 1 13 14
M  V30 14 1 3 15
M  V30 15 2 15 16
M  V30 16 1 16 17
M  V30 17 2 17 18
M  V30 18 1 18 19
M  V30 19 2 19 20
M  V30 20 1 18 21
M  V30 21 2 21 22
M  V30 22 1 22 23
M  V30 23 1 22 24
M  V30 24 2 24 25
M  V30 25 1 25 26
M  V30 26 2 14 5
M  V30 27 1 20 15
M  V30 28 1 11 6
M  V30 29 1 25 17
M  V30 30 1 1 27
M  V30 31 1 1 28
M  V30 32 1 1 29
M  V30 33 1 2 30
M  V30 34 1 2 31
M  V30 35 1 4 32
M  V30 36 1 4 33
M  V30 37 1 7 34
M  V30 38 1 8 35
M  V30 39 1 9 36
M  V30 40 1 10 37
M  V30 41 1 12 38
M  V30 42 1 13 39
M  V30 43 1 14 40
M  V30 44 1 16 41
M  V30 45 1 19 42
M  V30 46 1 20 43
M  V30 47 1 23 44
M  V30 48 1 23 45
M  V30 49 1 26 46
M  V30 50 1 26 47
M  V30 END BOND
M  V30 END CTAB
M  END
