
     RDKit          3D

 13 12  0  0  0  0  0  0  0  0999 V2000
   -1.6350   -0.2597    1.6519 N   0  0  0  0  0  0  0  0  0  0  0  0
   -1.7334   -1.2754    0.6270 C   0  0  0  0  0  0  0  0  0  0  0  0
   -1.6176   -0.6912   -0.8088 C   0  0  0  0  0  0  0  0  0  0  0  0
   -0.3820    0.0872   -1.0078 N   0  0  0  0  0  0  0  0  0  0  0  0
   -0.6610   -2.1714    0.8485 O   0  0  0  0  0  0  0  0  0  0  0  0
   -2.0367    0.6116    1.3181 H   0  0  0  0  0  0  0  0  0  0  0  0
   -0.6423   -0.0968    1.8037 H   0  0  0  0  0  0  0  0  0  0  0  0
   -2.6788   -1.8171    0.7324 H   0  0  0  0  0  0  0  0  0  0  0  0
   -1.6152   -1.5113   -1.5350 H   0  0  0  0  0  0  0  0  0  0  0  0
   -2.4786   -0.0499   -1.0260 H   0  0  0  0  0  0  0  0  0  0  0  0
   -0.3800    0.8657   -0.3498 H   0  0  0  0  0  0  0  0  0  0  0  0
    0.3959   -0.5025   -0.6980 H   0  0  0  0  0  0  0  0  0  0  0  0
   -0.8243   -2.9457    0.2849 H   0  0  0  0  0  0  0  0  0  0  0  0
  1  2  1  0
  2  3  1  0
  3  4  1  0
  2  5  1  0
  1  6  1  0
  1  7  1  0
  2  8  1  0
  3  9  1  0
  3 10  1  0
  4 11  1  0
  4 12  1  0
  5 13  1  0
M  END
