
     RDKit          3D

  0  0  0  0  0  0  0  0  0  0999 V3000
M  V30 BEGIN CTAB
M  V30 COUNTS 23 23 0 0 0
M  V30 BEGIN ATOM
M  V30 1 F 2.84474 2.4114 1.15785 0
M  V30 2 C 2.48482 1.21748 0.581535 0
M  V30 3 O 1.35672 1.29722 -0.260908 0
M  V30 4 C 0.388316 0.335498 -0.360344 0
M  V30 5 C 0.603149 -0.69525 -1.29735 0
M  V30 6 N 1.79404 -0.708892 -2.09076 0
M  V30 7 C -0.33709 -1.68209 -1.44108 0
M  V30 8 C -1.48273 -1.64794 -0.661559 0
M  V30 9 C -1.68412 -0.638876 0.250117 0
M  V30 10 C -0.74059 0.37633 0.413879 0
M  V30 11 C -1.02053 1.43002 1.4278 0
M  V30 12 F -0.820946 2.64924 0.841581 0
M  V30 13 F -0.0606963 1.28108 2.43959 0
M  V30 14 N -2.86008 -0.615156 1.04151 0
M  V30 15 F 3.61192 0.903288 -0.232415 0
M  V30 16 H 2.45547 0.373128 1.29424 0
M  V30 17 H 1.96076 0.0288978 -2.80381 0
M  V30 18 H 2.47174 -1.46828 -1.9306 0
M  V30 19 H -0.143956 -2.46165 -2.1699 0
M  V30 20 H -2.20099 -2.45075 -0.809387 0
M  V30 21 H -2.03403 1.28488 1.86929 0
M  V30 22 H -2.77409 -0.715624 2.08242 0
M  V30 23 H -3.81183 -0.503975 0.658308 0
M  V30 END ATOM
M  V30 BEGIN BOND
M  V30 1 1 1 2
M  V30 2 1 2 3
M  V30 3 1 3 4
M  V30 4 2 4 5
M  V30 5 1 5 6
M  V30 6 1 5 7
M  V30 7 2 7 8
M  V30 8 1 8 9
M  V30 9 2 9 10
M  V30 10 1 10 11
M  V30 11 1 11 12
M  V30 12 1 11 13
M  V30 13 1 9 14
M  V30 14 1 2 15
M  V30 15 1 10 4
M  V30 16 1 2 16
M  V30 17 1 6 17
M  V30 18 1 6 18
M  V30 19 1 7 19
M  V30 20 1 8 20
M  V30 21 1 11 21
M  V30 22 1 14 22
M  V30 23 1 14 23
M  V30 END BOND
M  V30 END CTAB
M  END
