
     RDKit          3D

  0  0  0  0  0  0  0  0  0  0999 V3000
M  V30 BEGIN CTAB
M  V30 COUNTS 34 37 0 0 0
M  V30 BEGIN ATOM
M  V30 1 N -6.25765 -0.303211 -2.78008 0
M  V30 2 C -5.3216 -0.414592 -2.08185 0
M  V30 3 C -4.18322 -0.573936 -1.23175 0
M  V30 4 C -3.27481 -1.58348 -1.46695 0
M  V30 5 N -2.19326 -1.75344 -0.67866 0
M  V30 6 C -2.04723 -0.887118 0.348352 0
M  V30 7 N -2.91737 0.102877 0.597449 0
M  V30 8 C -4.0161 0.301673 -0.176286 0
M  V30 9 N -4.94889 1.34494 0.0723272 0
M  V30 10 N -2.5245 0.772163 1.64057 0
M  V30 11 C -1.38455 0.250533 2.11687 0
M  V30 12 C -1.03525 -0.834806 1.30474 0
M  V30 13 N 0.0837401 -1.65735 1.45153 0
M  V30 14 N 1.20377 -1.75879 1.10208 0
M  V30 15 C 2.15934 -1.12362 0.307734 0
M  V30 16 C 2.24748 -1.29576 -1.07775 0
M  V30 17 C 3.20531 -0.652161 -1.83239 0
M  V30 18 C 4.12105 0.196412 -1.22657 0
M  V30 19 C 4.06023 0.386951 0.137988 0
M  V30 20 C 3.10173 -0.264358 0.851545 0
M  V30 21 O 5.09434 1.28081 0.456311 0
M  V30 22 C 5.51589 1.92488 -0.731696 0
M  V30 23 O 5.17316 0.963418 -1.71378 0
M  V30 24 N -0.605483 0.657279 3.23177 0
M  V30 25 H -3.4254 -2.25609 -2.29714 0
M  V30 26 H -5.19057 1.58876 1.05563 0
M  V30 27 H -5.41846 1.89547 -0.680319 0
M  V30 28 H 1.52091 -1.96277 -1.52241 0
M  V30 29 H 3.26915 -0.787568 -2.89715 0
M  V30 30 H 3.03899 -0.125814 1.92912 0
M  V30 31 H 6.61238 2.10189 -0.692646 0
M  V30 32 H 4.94797 2.83899 -0.940279 0
M  V30 33 H -0.913313 0.494504 4.20476 0
M  V30 34 H 0.302223 1.13331 3.07153 0
M  V30 END ATOM
M  V30 BEGIN BOND
M  V30 1 3 1 2
M  V30 2 1 2 3
M  V30 3 1 3 4
M  V30 4 2 4 5
M  V30 5 1 5 6
M  V30 6 1 6 7
M  V30 7 1 7 8
M  V30 8 1 8 9
M  V30 9 1 7 10
M  V30 10 2 10 11
M  V30 11 1 11 12
M  V30 12 1 12 13
M  V30 13 2 13 14
M  V30 14 1 14 15
M  V30 15 2 15 16
M  V30 16 1 16 17
M  V30 17 2 17 18
M  V30 18 1 18 19
M  V30 19 2 19 20
M  V30 20 1 19 21
M  V30 21 1 21 22
M  V30 22 1 22 23
M  V30 23 1 11 24
M  V30 24 2 8 3
M  V30 25 1 20 15
M  V30 26 2 12 6
M  V30 27 1 23 18
M  V30 28 1 4 25
M  V30 29 1 9 26
M  V30 30 1 9 27
M  V30 31 1 16 28
M  V30 32 1 17 29
M  V30 33 1 20 30
M  V30 34 1 22 31
M  V30 35 1 22 32
M  V30 36 1 24 33
M  V30 37 1 24 34
M  V30 END BOND
M  V30 END CTAB
M  END
