
     RDKit          3D

  0  0  0  0  0  0  0  0  0  0999 V3000
M  V30 BEGIN CTAB
M  V30 COUNTS 29 30 0 0 0
M  V30 BEGIN ATOM
M  V30 1 N -1.27073 -2.87412 -1.93064 0
M  V30 2 C -1.68347 -2.01007 -1.30979 0
M  V30 3 C -2.21193 -0.935342 -0.530622 0
M  V30 4 C -1.32499 -0.0491691 0.0399957 0
M  V30 5 O 0.0646865 -0.196795 -0.138532 0
M  V30 6 C 0.917976 0.745477 0.473088 0
M  V30 7 C 2.31685 0.390569 0.149391 0
M  V30 8 C 3.35752 1.14684 0.621108 0
M  V30 9 C 4.65426 0.80518 0.312181 0
M  V30 10 C 4.95445 -0.292011 -0.470335 0
M  V30 11 C 3.87 -1.02624 -0.924287 0
M  V30 12 C 2.56849 -0.703603 -0.628391 0
M  V30 13 N -1.83659 0.957032 0.770362 0
M  V30 14 C -3.16181 1.11592 0.953271 0
M  V30 15 N -4.01316 0.227234 0.378969 0
M  V30 16 C -3.58641 -0.805928 -0.365617 0
M  V30 17 N -4.46237 -1.74263 -0.972109 0
M  V30 18 N -3.6914 2.17261 1.71986 0
M  V30 19 H 0.748912 1.77879 0.076776 0
M  V30 20 H 0.774825 0.735938 1.58864 0
M  V30 21 H 3.17822 2.03835 1.25346 0
M  V30 22 H 5.48928 1.40477 0.685649 0
M  V30 23 H 5.96848 -0.578464 -0.725365 0
M  V30 24 H 4.02777 -1.90629 -1.54743 0
M  V30 25 H 1.7314 -1.31575 -1.01051 0
M  V30 26 H -4.81925 -2.59128 -0.49603 0
M  V30 27 H -4.79445 -1.60214 -1.96948 0
M  V30 28 H -4.18702 2.94529 1.25323 0
M  V30 29 H -3.57953 2.16582 2.74315 0
M  V30 END ATOM
M  V30 BEGIN BOND
M  V30 1 3 1 2
M  V30 2 1 2 3
M  V30 3 2 3 4
M  V30 4 1 4 5
M  V30 5 1 5 6
M  V30 6 1 6 7
M  V30 7 2 7 8
M  V30 8 1 8 9
M  V30 9 2 9 10
M  V30 10 1 10 11
M  V30 11 2 11 12
M  V30 12 1 4 13
M  V30 13 2 13 14
M  V30 14 1 14 15
M  V30 15 2 15 16
M  V30 16 1 16 17
M  V30 17 1 14 18
M  V30 18 1 16 3
M  V30 19 1 12 7
M  V30 20 1 6 19
M  V30 21 1 6 20
M  V30 22 1 8 21
M  V30 23 1 9 22
M  V30 24 1 10 23
M  V30 25 1 11 24
M  V30 26 1 12 25
M  V30 27 1 17 26
M  V30 28 1 17 27
M  V30 29 1 18 28
M  V30 30 1 18 29
M  V30 END BOND
M  V30 END CTAB
M  END
