
     RDKit          3D

  0  0  0  0  0  0  0  0  0  0999 V3000
M  V30 BEGIN CTAB
M  V30 COUNTS 21 22 0 0 0
M  V30 BEGIN ATOM
M  V30 1 N -3.30118 0.176079 -0.101615 0
M  V30 2 C -1.94022 -0.236416 -0.0899454 0
M  V30 3 C -1.65941 -1.59628 -0.202771 0
M  V30 4 N -0.386059 -2.01362 -0.194679 0
M  V30 5 C 0.674989 -1.20801 -0.0836721 0
M  V30 6 C 0.405368 0.16501 0.0307449 0
M  V30 7 C -0.888167 0.629456 0.0261848 0
M  V30 8 N -1.18117 2.00987 0.140439 0
M  V30 9 C 1.49974 0.99501 0.145145 0
M  V30 10 Cl 1.19824 2.72576 0.290742 0
M  V30 11 C 2.78646 0.490607 0.145839 0
M  V30 12 C 3.04766 -0.854365 0.0336544 0
M  V30 13 C 1.96151 -1.69446 -0.0813621 0
M  V30 14 Cl 2.27802 -3.42016 -0.225989 0
M  V30 15 Cl 4.14032 1.59277 0.294149 0
M  V30 16 H -3.87924 0.334689 0.741707 0
M  V30 17 H -3.74331 0.328263 -1.03445 0
M  V30 18 H -2.48764 -2.28607 -0.294916 0
M  V30 19 H -1.2796 2.65448 -0.668279 0
M  V30 20 H -1.32318 2.455 1.09393 0
M  V30 21 H 4.07686 -1.24761 0.0351389 0
M  V30 END ATOM
M  V30 BEGIN BOND
M  V30 1 1 1 2
M  V30 2 2 2 3
M  V30 3 1 3 4
M  V30 4 2 4 5
M  V30 5 1 5 6
M  V30 6 2 6 7
M  V30 7 1 7 8
M  V30 8 1 6 9
M  V30 9 1 9 10
M  V30 10 2 9 11
M  V30 11 1 11 12
M  V30 12 2 12 13
M  V30 13 1 13 14
M  V30 14 1 11 15
M  V30 15 1 7 2
M  V30 16 1 13 5
M  V30 17 1 1 16
M  V30 18 1 1 17
M  V30 19 1 3 18
M  V30 20 1 8 19
M  V30 21 1 8 20
M  V30 22 1 12 21
M  V30 END BOND
M  V30 END CTAB
M  END
