
     RDKit          3D

  0  0  0  0  0  0  0  0  0  0999 V3000
M  V30 BEGIN CTAB
M  V30 COUNTS 22 22 0 0 0
M  V30 BEGIN ATOM
M  V30 1 C -3.30108 0.295456 0.0476727 0
M  V30 2 C -2.17134 1.14493 -0.40208 0
M  V30 3 C -0.848287 0.487177 -0.21247 0
M  V30 4 S 0.655211 1.18355 -0.625602 0
M  V30 5 C 1.69058 -0.0805746 -0.151008 0
M  V30 6 C 0.82276 -1.02647 0.324257 0
M  V30 7 C -0.494731 -0.730049 0.291581 0
M  V30 8 N -1.52024 -1.6515 0.767826 0
M  V30 9 S 3.45964 -0.18847 -0.233403 0
M  V30 10 O 3.85396 -1.51127 0.30117 0
M  V30 11 O 3.84826 0.0135435 -1.66863 0
M  V30 12 N 4.1322 1.07134 0.694624 0
M  V30 13 H -3.35486 0.111502 1.13285 0
M  V30 14 H -3.44367 -0.61072 -0.582936 0
M  V30 15 H -4.24608 0.893109 -0.161193 0
M  V30 16 H -2.14882 2.05035 0.26731 0
M  V30 17 H -2.33515 1.43857 -1.45653 0
M  V30 18 H 1.1952 -2.00541 0.723195 0
M  V30 19 H -1.84193 -1.64035 1.73358 0
M  V30 20 H -1.90433 -2.31857 0.0767358 0
M  V30 21 H 4.1147 1.99964 0.243388 0
M  V30 22 H 3.83801 1.07422 1.68712 0
M  V30 END ATOM
M  V30 BEGIN BOND
M  V30 1 1 1 2
M  V30 2 1 2 3
M  V30 3 1 3 4
M  V30 4 1 4 5
M  V30 5 2 5 6
M  V30 6 1 6 7
M  V30 7 1 7 8
M  V30 8 1 5 9
M  V30 9 2 9 10
M  V30 10 2 9 11
M  V30 11 1 9 12
M  V30 12 2 7 3
M  V30 13 1 1 13
M  V30 14 1 1 14
M  V30 15 1 1 15
M  V30 16 1 2 16
M  V30 17 1 2 17
M  V30 18 1 6 18
M  V30 19 1 8 19
M  V30 20 1 8 20
M  V30 21 1 12 21
M  V30 22 1 12 22
M  V30 END BOND
M  V30 END CTAB
M  END
