
     RDKit          3D

  0  0  0  0  0  0  0  0  0  0999 V3000
M  V30 BEGIN CTAB
M  V30 COUNTS 17 16 0 0 0
M  V30 BEGIN ATOM
M  V30 1 N -0.145573 -1.60624 0.255878 0
M  V30 2 C -0.296959 -0.395374 -0.473584 0
M  V30 3 C 0.917256 0.443602 -0.29927 0
M  V30 4 O 1.0409 1.57654 -0.845438 0
M  V30 5 N 1.99565 -0.01855 0.505501 0
M  V30 6 O 3.1178 0.708844 0.69247 0
M  V30 7 C -1.55018 0.36398 -0.196932 0
M  V30 8 N -1.72485 0.773788 1.13288 0
M  V30 9 H 0.0138629 -1.50223 1.26809 0
M  V30 10 H -0.814407 -2.35913 -0.000455229 0
M  V30 11 H -0.298707 -0.690456 -1.56614 0
M  V30 12 H 1.96132 -0.946407 0.987269 0
M  V30 13 H 3.49157 0.870264 -0.217846 0
M  V30 14 H -2.41916 -0.270918 -0.499411 0
M  V30 15 H -1.59007 1.25127 -0.863274 0
M  V30 16 H -1.48154 0.162648 1.89013 0
M  V30 17 H -2.21692 1.63837 1.31658 0
M  V30 END ATOM
M  V30 BEGIN BOND
M  V30 1 1 1 2
M  V30 2 1 2 3
M  V30 3 2 3 4
M  V30 4 1 3 5
M  V30 5 1 5 6
M  V30 6 1 2 7
M  V30 7 1 7 8
M  V30 8 1 1 9
M  V30 9 1 1 10
M  V30 10 1 2 11
M  V30 11 1 5 12
M  V30 12 1 6 13
M  V30 13 1 7 14
M  V30 14 1 7 15
M  V30 15 1 8 16
M  V30 16 1 8 17
M  V30 END BOND
M  V30 END CTAB
M  END
