
     RDKit          3D

  0  0  0  0  0  0  0  0  0  0999 V3000
M  V30 BEGIN CTAB
M  V30 COUNTS 29 30 0 0 0
M  V30 BEGIN ATOM
M  V30 1 N 3.41635 0.866967 1.35142 0
M  V30 2 C 2.40464 0.0745139 0.666501 0 CFG=1
M  V30 3 C 1.29423 -0.289524 1.60189 0
M  V30 4 C 0.244723 -1.05545 0.9246 0
M  V30 5 C 0.196658 -2.45177 0.745035 0
M  V30 6 N -0.920116 -2.70206 0.0192041 0
M  V30 7 C -1.56431 -1.55624 -0.258519 0
M  V30 8 C -0.869697 -0.500838 0.29003 0
M  V30 9 C -1.33075 0.815722 0.170554 0
M  V30 10 C -2.48933 1.11793 -0.497439 0
M  V30 11 N -2.98022 2.44399 -0.63678 0
M  V30 12 C -3.17875 0.0364091 -1.04948 0
M  V30 13 C -2.73963 -1.25918 -0.939213 0
M  V30 14 C 2.11133 0.621777 -0.62907 0
M  V30 15 O 2.53853 1.96348 -0.881983 0
M  V30 16 O 1.52482 0.0737105 -1.57722 0
M  V30 17 H 3.59973 1.71692 0.789755 0
M  V30 18 H 4.30729 0.349026 1.42688 0
M  V30 19 H 2.97048 -0.922849 0.470039 0
M  V30 20 H 1.78808 -0.894123 2.42457 0
M  V30 21 H 0.89443 0.596297 2.15387 0
M  V30 22 H 0.949586 -3.10149 1.14731 0
M  V30 23 H -1.21039 -3.66743 -0.266698 0
M  V30 24 H -0.738009 1.5903 0.626559 0
M  V30 25 H -3.73983 2.67434 -1.30479 0
M  V30 26 H -2.57841 3.20005 -0.0679759 0
M  V30 27 H -4.0858 0.276576 -1.57464 0
M  V30 28 H -3.28191 -2.10175 -1.37369 0
M  V30 29 H 3.46629 2.08468 -1.28455 0
M  V30 END ATOM
M  V30 BEGIN BOND
M  V30 1 1 1 2
M  V30 2 1 2 3
M  V30 3 1 3 4
M  V30 4 2 4 5
M  V30 5 1 5 6
M  V30 6 1 6 7
M  V30 7 2 7 8
M  V30 8 1 8 9
M  V30 9 2 9 10
M  V30 10 1 10 11
M  V30 11 1 10 12
M  V30 12 2 12 13
M  V30 13 1 2 14
M  V30 14 1 14 15
M  V30 15 2 14 16
M  V30 16 1 8 4
M  V30 17 1 13 7
M  V30 18 1 1 17
M  V30 19 1 1 18
M  V30 20 1 2 19 CFG=3
M  V30 21 1 3 20
M  V30 22 1 3 21
M  V30 23 1 5 22
M  V30 24 1 6 23
M  V30 25 1 9 24
M  V30 26 1 11 25
M  V30 27 1 11 26
M  V30 28 1 12 27
M  V30 29 1 13 28
M  V30 30 1 15 29
M  V30 END BOND
M  V30 END CTAB
M  END
