
     RDKit          3D

  0  0  0  0  0  0  0  0  0  0999 V3000
M  V30 BEGIN CTAB
M  V30 COUNTS 70 74 0 0 0
M  V30 BEGIN ATOM
M  V30 1 O -2.6183 -2.68514 -2.77028 0
M  V30 2 C -3.38933 -1.5668 -2.72319 0 CFG=2
M  V30 3 C -2.68446 -0.278187 -3.0528 0
M  V30 4 N -1.71801 -0.0642646 -1.90002 0
M  V30 5 C -2.1964 0.54568 -0.718791 0
M  V30 6 C -2.67675 -0.448837 0.280403 0 CFG=2
M  V30 7 C -3.461 -1.59708 -0.21677 0 CFG=2
M  V30 8 C -4.22741 -1.42709 -1.46667 0
M  V30 9 C -4.44685 -2.05133 0.870927 0
M  V30 10 O -2.66186 -2.75836 -0.404713 0
M  V30 11 N -3.26027 0.190086 1.46554 0
M  V30 12 C -2.93042 0.0493397 2.76309 0
M  V30 13 N -3.68461 0.793091 3.54996 0
M  V30 14 C -4.54527 1.45594 2.79396 0
M  V30 15 C -4.28087 1.07809 1.47626 0
M  V30 16 N -5.05203 1.64387 0.545128 0
M  V30 17 C -6.032 2.51742 0.738187 0
M  V30 18 N -6.81029 3.0742 -0.328418 0
M  V30 19 N -6.29598 2.8901 2.01341 0
M  V30 20 C -5.57163 2.37379 3.02268 0
M  V30 21 N -5.85547 2.76828 4.33848 0
M  V30 22 C -0.460166 -0.513604 -2.21624 0
M  V30 23 O -0.370891 -1.02943 -3.43577 0
M  V30 24 C 0.812154 -0.562348 -1.53628 0
M  V30 25 C 1.93447 -1.09805 -2.2028 0
M  V30 26 C 3.16669 -1.16987 -1.61483 0
M  V30 27 C 3.41257 -0.729961 -0.336406 0
M  V30 28 C 2.34805 -0.204699 0.340188 0
M  V30 29 C 1.0835 -0.131209 -0.263374 0
M  V30 30 O 4.68282 -0.818262 0.23281 0
M  V30 31 C 5.72747 -1.38019 -0.549057 0
M  V30 32 C 7.02623 -1.41173 0.180114 0
M  V30 33 N 7.388 -0.0379574 0.528332 0
M  V30 34 C 8.16634 0.811815 -0.317973 0
M  V30 35 C 8.17166 2.13466 0.422075 0
M  V30 36 C 7.87031 1.79728 1.86832 0
M  V30 37 C 7.00903 0.596174 1.73421 0
M  V30 38 O 6.10367 0.198732 2.53446 0
M  V30 39 H -2.51375 -2.99006 -3.68934 0
M  V30 40 H -4.15746 -1.69027 -3.54859 0
M  V30 41 H -2.13061 -0.366529 -3.98808 0
M  V30 42 H -3.42104 0.538131 -3.04591 0
M  V30 43 H -3.05747 1.25242 -1.01357 0
M  V30 44 H -1.51031 1.25856 -0.241252 0
M  V30 45 H -1.73302 -0.919259 0.702806 0
M  V30 46 H -4.96995 -2.28015 -1.51946 0
M  V30 47 H -4.8165 -0.521603 -1.57648 0
M  V30 48 H -4.84098 -3.06489 0.556483 0
M  V30 49 H -5.28897 -1.36456 0.868917 0
M  V30 50 H -3.95588 -2.23035 1.83104 0
M  V30 51 H -3.18006 -3.57611 -0.267096 0
M  V30 52 H -2.12808 -0.606741 3.12808 0
M  V30 53 H -7.06205 4.07754 -0.356771 0
M  V30 54 H -7.13952 2.46643 -1.104 0
M  V30 55 H -5.11294 3.13287 4.96131 0
M  V30 56 H -6.84862 2.69418 4.70915 0
M  V30 57 H 1.83892 -1.46899 -3.21117 0
M  V30 58 H 4.03777 -1.58993 -2.14385 0
M  V30 59 H 2.45303 0.165863 1.35325 0
M  V30 60 H 0.278052 0.287204 0.322409 0
M  V30 61 H 5.45344 -2.395 -0.919248 0
M  V30 62 H 5.87026 -0.76045 -1.46737 0
M  V30 63 H 7.78441 -1.8624 -0.489956 0
M  V30 64 H 6.93137 -2.05825 1.0629 0
M  V30 65 H 9.19774 0.412234 -0.385831 0
M  V30 66 H 7.70156 0.973147 -1.30213 0
M  V30 67 H 7.35139 2.80597 0.0726673 0
M  V30 68 H 9.16499 2.58356 0.329719 0
M  V30 69 H 7.31596 2.61279 2.37194 0
M  V30 70 H 8.8156 1.53047 2.35528 0
M  V30 END ATOM
M  V30 BEGIN BOND
M  V30 1 1 1 2
M  V30 2 1 2 3
M  V30 3 1 3 4
M  V30 4 1 4 5
M  V30 5 1 5 6
M  V30 6 1 6 7
M  V30 7 1 7 8
M  V30 8 1 7 9
M  V30 9 1 7 10 CFG=3
M  V30 10 1 6 11
M  V30 11 1 11 12
M  V30 12 2 12 13
M  V30 13 1 13 14
M  V30 14 2 14 15
M  V30 15 1 15 16
M  V30 16 2 16 17
M  V30 17 1 17 18
M  V30 18 1 17 19
M  V30 19 2 19 20
M  V30 20 1 20 21
M  V30 21 1 4 22
M  V30 22 2 22 23
M  V30 23 1 22 24
M  V30 24 2 24 25
M  V30 25 1 25 26
M  V30 26 2 26 27
M  V30 27 1 27 28
M  V30 28 2 28 29
M  V30 29 1 27 30
M  V30 30 1 30 31
M  V30 31 1 31 32
M  V30 32 1 32 33
M  V30 33 1 33 34
M  V30 34 1 34 35
M  V30 35 1 35 36
M  V30 36 1 36 37
M  V30 37 2 37 38
M  V30 38 1 8 2
M  V30 39 1 15 11
M  V30 40 1 29 24
M  V30 41 1 37 33
M  V30 42 1 20 14
M  V30 43 1 1 39
M  V30 44 1 2 40 CFG=3
M  V30 45 1 3 41
M  V30 46 1 3 42
M  V30 47 1 5 43
M  V30 48 1 5 44
M  V30 49 1 6 45 CFG=1
M  V30 50 1 8 46
M  V30 51 1 8 47
M  V30 52 1 9 48
M  V30 53 1 9 49
M  V30 54 1 9 50
M  V30 55 1 10 51
M  V30 56 1 12 52
M  V30 57 1 18 53
M  V30 58 1 18 54
M  V30 59 1 21 55
M  V30 60 1 21 56
M  V30 61 1 25 57
M  V30 62 1 26 58
M  V30 63 1 28 59
M  V30 64 1 29 60
M  V30 65 1 31 61
M  V30 66 1 31 62
M  V30 67 1 32 63
M  V30 68 1 32 64
M  V30 69 1 34 65
M  V30 70 1 34 66
M  V30 71 1 35 67
M  V30 72 1 35 68
M  V30 73 1 36 69
M  V30 74 1 36 70
M  V30 END BOND
M  V30 END CTAB
M  END
