
     RDKit          3D

  0  0  0  0  0  0  0  0  0  0999 V3000
M  V30 BEGIN CTAB
M  V30 COUNTS 42 44 0 0 0
M  V30 BEGIN ATOM
M  V30 1 O 1.6736 2.94768 -1.52218 0
M  V30 2 C 2.47924 1.82786 -1.56477 0
M  V30 3 O 3.30176 1.80802 -2.54788 0
M  V30 4 C 2.48177 0.709138 -0.62895 0
M  V30 5 C 1.18468 -0.0212437 -0.49802 0
M  V30 6 C 0.688675 -0.613823 -1.76843 0
M  V30 7 C -0.536294 -1.4398 -1.47719 0
M  V30 8 C -0.289324 -2.55465 -0.501152 0
M  V30 9 C 0.170275 -1.88079 0.793586 0
M  V30 10 C 1.44248 -1.17762 0.498595 0
M  V30 11 C -0.914758 -0.9792 1.3514 0
M  V30 12 C -1.15575 0.092572 0.353527 0
M  V30 13 C 0.119201 0.852136 0.103131 0
M  V30 14 C -1.62992 -0.579726 -0.951893 0
M  V30 15 C -2.25016 1.05973 0.69883 0
M  V30 16 C -2.07839 1.81012 1.94223 0
M  V30 17 O -2.89604 1.68455 2.88615 0
M  V30 18 O -1.02933 2.6806 2.1373 0
M  V30 19 N -3.54644 0.39389 0.759865 0
M  V30 20 N 3.57801 -0.189975 -0.958812 0
M  V30 21 H 1.61092 3.51102 -0.707627 0
M  V30 22 H 2.7583 1.13265 0.381922 0
M  V30 23 H 1.44879 -1.18276 -2.33085 0
M  V30 24 H 0.365627 0.215656 -2.4332 0
M  V30 25 H -0.85581 -1.88847 -2.44659 0
M  V30 26 H 0.563809 -3.17436 -0.843773 0
M  V30 27 H -1.22231 -3.10118 -0.361031 0
M  V30 28 H 0.378302 -2.69709 1.51015 0
M  V30 29 H 2.0993 -1.87624 -0.0594324 0
M  V30 30 H 1.96446 -0.799973 1.39009 0
M  V30 31 H -1.7784 -1.62228 1.56181 0
M  V30 32 H -0.537614 -0.570644 2.30112 0
M  V30 33 H -0.110769 1.70427 -0.568591 0
M  V30 34 H 0.492265 1.182 1.10767 0
M  V30 35 H -2.50483 -1.20154 -0.6414 0
M  V30 36 H -1.93316 0.185099 -1.69027 0
M  V30 37 H -2.32905 1.76257 -0.181387 0
M  V30 38 H -1.0468 3.61627 1.80611 0
M  V30 39 H -3.9372 0.191892 -0.171279 0
M  V30 40 H -3.5621 -0.39239 1.4179 0
M  V30 41 H 3.50354 -0.603387 -1.895 0
M  V30 42 H 3.83943 -0.820573 -0.19651 0
M  V30 END ATOM
M  V30 BEGIN BOND
M  V30 1 1 1 2
M  V30 2 2 2 3
M  V30 3 1 2 4
M  V30 4 1 4 5
M  V30 5 1 5 6
M  V30 6 1 6 7
M  V30 7 1 7 8
M  V30 8 1 8 9
M  V30 9 1 9 10
M  V30 10 1 9 11
M  V30 11 1 11 12
M  V30 12 1 12 13
M  V30 13 1 12 14
M  V30 14 1 12 15
M  V30 15 1 15 16
M  V30 16 2 16 17
M  V30 17 1 16 18
M  V30 18 1 15 19
M  V30 19 1 4 20
M  V30 20 1 10 5
M  V30 21 1 13 5
M  V30 22 1 14 7
M  V30 23 1 1 21
M  V30 24 1 4 22
M  V30 25 1 6 23
M  V30 26 1 6 24
M  V30 27 1 7 25
M  V30 28 1 8 26
M  V30 29 1 8 27
M  V30 30 1 9 28
M  V30 31 1 10 29
M  V30 32 1 10 30
M  V30 33 1 11 31
M  V30 34 1 11 32
M  V30 35 1 13 33
M  V30 36 1 13 34
M  V30 37 1 14 35
M  V30 38 1 14 36
M  V30 39 1 15 37
M  V30 40 1 18 38
M  V30 41 1 19 39
M  V30 42 1 19 40
M  V30 43 1 20 41
M  V30 44 1 20 42
M  V30 END BOND
M  V30 END CTAB
M  END
