
     RDKit          3D

  0  0  0  0  0  0  0  0  0  0999 V3000
M  V30 BEGIN CTAB
M  V30 COUNTS 36 38 0 0 0
M  V30 BEGIN ATOM
M  V30 1 N 6.24262 1.11081 -0.462778 0
M  V30 2 C 4.94367 0.512496 -0.406473 0
M  V30 3 N 4.04468 0.949141 0.489938 0
M  V30 4 C 2.80302 0.403175 0.569888 0
M  V30 5 C 2.43641 -0.625799 -0.281378 0
M  V30 6 C 3.40833 -1.034 -1.18601 0
M  V30 7 N 4.62935 -0.483748 -1.25106 0
M  V30 8 C 1.12313 -1.27679 -0.278004 0
M  V30 9 N 0.126234 -0.518001 0.457784 0
M  V30 10 C -1.15924 -1.24082 0.449161 0
M  V30 11 C -2.08846 -0.120903 0.884588 0 CFG=1
M  V30 12 C -1.61523 1.06482 0.101373 0 CFG=2
M  V30 13 C -0.235571 0.610307 -0.396024 0
M  V30 14 N -1.39005 2.233 0.919448 0
M  V30 15 C -3.52797 -0.452176 0.766213 0
M  V30 16 C -4.16726 -0.790901 -0.525911 0
M  V30 17 C -4.45379 0.519397 0.141365 0
M  V30 18 H 6.67913 1.26637 -1.37763 0
M  V30 19 H 6.71272 1.37264 0.408592 0
M  V30 20 H 2.08416 0.751986 1.29109 0
M  V30 21 H 3.16182 -1.84503 -1.87833 0
M  V30 22 H 0.822384 -1.43581 -1.33471 0
M  V30 23 H 1.18817 -2.29748 0.18118 0
M  V30 24 H -1.3855 -1.51177 -0.585478 0
M  V30 25 H -1.13673 -2.06707 1.16229 0
M  V30 26 H -1.85978 0.094957 1.95902 0
M  V30 27 H -2.18888 1.27561 -0.82091 0
M  V30 28 H 0.504595 1.40484 -0.368033 0
M  V30 29 H -0.304065 0.199023 -1.43082 0
M  V30 30 H -1.09369 1.90998 1.86625 0
M  V30 31 H -2.23709 2.84042 0.954811 0
M  V30 32 H -3.92297 -1.01378 1.66679 0
M  V30 33 H -5.01399 -1.50694 -0.521781 0
M  V30 34 H -3.53309 -0.773314 -1.44341 0
M  V30 35 H -5.45154 0.651411 0.650725 0
M  V30 36 H -4.14552 1.42951 -0.371757 0
M  V30 END ATOM
M  V30 BEGIN BOND
M  V30 1 1 1 2
M  V30 2 2 2 3
M  V30 3 1 3 4
M  V30 4 2 4 5
M  V30 5 1 5 6
M  V30 6 2 6 7
M  V30 7 1 5 8
M  V30 8 1 8 9
M  V30 9 1 9 10
M  V30 10 1 10 11
M  V30 11 1 11 12
M  V30 12 1 12 13
M  V30 13 1 12 14
M  V30 14 1 11 15
M  V30 15 1 15 16
M  V30 16 1 16 17
M  V30 17 1 7 2
M  V30 18 1 13 9
M  V30 19 1 17 15
M  V30 20 1 1 18
M  V30 21 1 1 19
M  V30 22 1 4 20
M  V30 23 1 6 21
M  V30 24 1 8 22
M  V30 25 1 8 23
M  V30 26 1 10 24
M  V30 27 1 10 25
M  V30 28 1 11 26 CFG=1
M  V30 29 1 12 27 CFG=3
M  V30 30 1 13 28
M  V30 31 1 13 29
M  V30 32 1 14 30
M  V30 33 1 14 31
M  V30 34 1 15 32
M  V30 35 1 16 33
M  V30 36 1 16 34
M  V30 37 1 17 35
M  V30 38 1 17 36
M  V30 END BOND
M  V30 END CTAB
M  END
