
     RDKit          3D

  0  0  0  0  0  0  0  0  0  0999 V3000
M  V30 BEGIN CTAB
M  V30 COUNTS 50 52 0 0 0
M  V30 BEGIN ATOM
M  V30 1 N 3.25291 -3.35531 1.01068 0
M  V30 2 C 3.83847 -2.12464 0.620376 0 CFG=2
M  V30 3 C 4.98603 -1.86982 1.57599 0
M  V30 4 C 4.24194 -1.14932 2.68337 0
M  V30 5 O 3.34621 -0.315313 2.02992 0
M  V30 6 C 2.91017 -1.02021 0.892947 0 CFG=1
M  V30 7 C 2.69365 -0.0358431 -0.204211 0
M  V30 8 C 1.71286 1.02162 0.270082 0
M  V30 9 C 0.276594 0.478233 0.288544 0
M  V30 10 N -0.105355 0.11435 -1.03923 0
M  V30 11 C 0.934272 -0.105342 -2.02286 0
M  V30 12 C 2.24814 -0.557696 -1.49875 0
M  V30 13 C -1.44429 -0.039629 -1.43752 0
M  V30 14 O -1.67589 -0.340137 -2.67511 0
M  V30 15 C -2.65231 0.0951058 -0.637217 0
M  V30 16 C -3.424 1.33314 -0.918801 0
M  V30 17 C -3.82476 2.07851 0.167509 0
M  V30 18 C -4.55847 3.2474 0.0484815 0
M  V30 19 C -4.89678 3.6757 -1.20458 0
M  V30 20 C -4.49564 2.93009 -2.2912 0
M  V30 21 C -3.76211 1.7625 -2.1582 0
M  V30 22 Br -5.91269 5.29175 -1.42889 0
M  V30 23 N -2.38703 -0.098085 0.760619 0
M  V30 24 C -3.61801 -1.04032 -1.02769 0
M  V30 25 H 3.72871 -4.1756 0.741029 0
M  V30 26 H 2.27576 -3.42542 1.06187 0
M  V30 27 H 4.19163 -2.21344 -0.420666 0
M  V30 28 H 5.46271 -2.7958 1.92558 0
M  V30 29 H 5.70696 -1.15893 1.10759 0
M  V30 30 H 3.64412 -1.9107 3.21289 0
M  V30 31 H 4.9541 -0.602558 3.30828 0
M  V30 32 H 1.91584 -1.4202 1.17952 0
M  V30 33 H 3.65504 0.521148 -0.343032 0
M  V30 34 H 1.71041 1.81756 -0.519015 0
M  V30 35 H 1.94934 1.42176 1.26336 0
M  V30 36 H 0.186795 -0.380645 0.949254 0
M  V30 37 H -0.298126 1.31999 0.734332 0
M  V30 38 H 0.505209 -0.806369 -2.78769 0
M  V30 39 H 1.06532 0.852926 -2.56743 0
M  V30 40 H 3.00683 -0.296318 -2.28014 0
M  V30 41 H 2.23665 -1.69064 -1.54078 0
M  V30 42 H -3.59108 1.80973 1.19746 0
M  V30 43 H -4.86918 3.8259 0.899109 0
M  V30 44 H -4.78774 3.3102 -3.26139 0
M  V30 45 H -3.4749 1.21477 -3.02633 0
M  V30 46 H -2.02362 -1.10904 0.843158 0
M  V30 47 H -3.28822 -0.127821 1.30734 0
M  V30 48 H -3.0282 -1.9823 -1.08251 0
M  V30 49 H -4.06816 -0.860255 -2.013 0
M  V30 50 H -4.4501 -1.11469 -0.301163 0
M  V30 END ATOM
M  V30 BEGIN BOND
M  V30 1 1 1 2
M  V30 2 1 2 3
M  V30 3 1 3 4
M  V30 4 1 4 5
M  V30 5 1 5 6
M  V30 6 1 6 7
M  V30 7 1 7 8
M  V30 8 1 8 9
M  V30 9 1 9 10
M  V30 10 1 10 11
M  V30 11 1 11 12
M  V30 12 1 10 13
M  V30 13 2 13 14
M  V30 14 1 13 15
M  V30 15 1 15 16
M  V30 16 2 16 17
M  V30 17 1 17 18
M  V30 18 2 18 19
M  V30 19 1 19 20
M  V30 20 2 20 21
M  V30 21 1 19 22
M  V30 22 1 15 23
M  V30 23 1 15 24
M  V30 24 1 6 2
M  V30 25 1 12 7
M  V30 26 1 21 16
M  V30 27 1 1 25
M  V30 28 1 1 26
M  V30 29 1 2 27 CFG=3
M  V30 30 1 3 28
M  V30 31 1 3 29
M  V30 32 1 4 30
M  V30 33 1 4 31
M  V30 34 1 6 32 CFG=1
M  V30 35 1 7 33
M  V30 36 1 8 34
M  V30 37 1 8 35
M  V30 38 1 9 36
M  V30 39 1 9 37
M  V30 40 1 11 38
M  V30 41 1 11 39
M  V30 42 1 12 40
M  V30 43 1 12 41
M  V30 44 1 17 42
M  V30 45 1 18 43
M  V30 46 1 20 44
M  V30 47 1 21 45
M  V30 48 1 23 46
M  V30 49 1 23 47
M  V30 50 1 24 48
M  V30 51 1 24 49
M  V30 52 1 24 50
M  V30 END BOND
M  V30 END CTAB
M  END
