
     RDKit          3D

  0  0  0  0  0  0  0  0  0  0999 V3000
M  V30 BEGIN CTAB
M  V30 COUNTS 58 60 0 0 0
M  V30 BEGIN ATOM
M  V30 1 N 5.51082 2.17233 -0.764518 0
M  V30 2 C 6.55339 1.51209 -0.00959915 0
M  V30 3 C 6.08364 0.0530773 0.174679 0
M  V30 4 C 4.79736 0.122295 0.914893 0
M  V30 5 C 4.16819 -1.17858 1.2268 0
M  V30 6 C 3.80415 -2.05797 0.0814541 0 CFG=1
M  V30 7 C 2.85453 -1.43768 -0.860436 0
M  V30 8 O 3.12246 -1.42264 -2.07572 0
M  V30 9 N 1.65762 -0.866992 -0.402375 0
M  V30 10 C 0.75191 -0.267911 -1.35914 0
M  V30 11 C -0.44514 0.264475 -0.646555 0
M  V30 12 O -0.0347145 1.20804 0.275082 0
M  V30 13 C -1.15453 -0.868098 0.0530016 0
M  V30 14 C -2.21435 -0.290933 0.948418 0
M  V30 15 N -2.96209 0.729364 0.270332 0
M  V30 16 C -2.48794 1.55522 -0.805077 0
M  V30 17 C -1.42811 0.899968 -1.62128 0
M  V30 18 C -4.29371 0.957187 0.714735 0
M  V30 19 C -4.55606 2.09581 1.43151 0
M  V30 20 C -5.81213 2.34276 1.90835 0
M  V30 21 N -6.76621 1.43328 1.64749 0
M  V30 22 C -6.56341 0.308979 0.953964 0
M  V30 23 C -5.28422 0.0601003 0.469486 0
M  V30 24 C -5.06982 -1.09162 -0.255132 0
M  V30 25 N -6.04221 -1.99617 -0.518849 0
M  V30 26 C -7.2751 -1.75285 -0.048438 0
M  V30 27 C -7.54384 -0.607985 0.685548 0
M  V30 28 N 4.98168 -2.59753 -0.540048 0
M  V30 29 H 4.81508 2.64626 -0.178864 0
M  V30 30 H 5.05177 1.48219 -1.37522 0
M  V30 31 H 7.47689 1.45256 -0.611949 0
M  V30 32 H 6.68509 1.91567 0.996936 0
M  V30 33 H 6.8494 -0.548888 0.696414 0
M  V30 34 H 6.01205 -0.324496 -0.865087 0
M  V30 35 H 4.97906 0.644042 1.90254 0
M  V30 36 H 4.03648 0.764239 0.419741 0
M  V30 37 H 4.84299 -1.79987 1.88754 0
M  V30 38 H 3.25641 -1.02867 1.87695 0
M  V30 39 H 3.31366 -2.97256 0.575506 0
M  V30 40 H 1.4559 -0.890186 0.628469 0
M  V30 41 H 1.29245 0.576587 -1.87108 0
M  V30 42 H 0.509655 -1.05641 -2.10272 0
M  V30 43 H 0.0521128 2.08008 -0.226373 0
M  V30 44 H -0.45701 -1.53822 0.60589 0
M  V30 45 H -1.65793 -1.49605 -0.744402 0
M  V30 46 H -2.88845 -1.08471 1.33966 0
M  V30 47 H -1.64191 0.169001 1.82179 0
M  V30 48 H -2.03753 2.50277 -0.386175 0
M  V30 49 H -3.34372 1.82193 -1.47237 0
M  V30 50 H -1.81977 0.0804845 -2.25377 0
M  V30 51 H -0.852832 1.59611 -2.23648 0
M  V30 52 H -3.75486 2.80838 1.62134 0
M  V30 53 H -5.99886 3.24718 2.47204 0
M  V30 54 H -4.09977 -1.33869 -0.672032 0
M  V30 55 H -8.09803 -2.43613 -0.22354 0
M  V30 56 H -8.55434 -0.413916 1.06778 0
M  V30 57 H 4.94292 -2.61717 -1.57902 0
M  V30 58 H 5.2809 -3.51951 -0.160911 0
M  V30 END ATOM
M  V30 BEGIN BOND
M  V30 1 1 1 2
M  V30 2 1 2 3
M  V30 3 1 3 4
M  V30 4 1 4 5
M  V30 5 1 5 6
M  V30 6 1 6 7
M  V30 7 2 7 8
M  V30 8 1 7 9
M  V30 9 1 9 10
M  V30 10 1 10 11
M  V30 11 1 11 12
M  V30 12 1 11 13
M  V30 13 1 13 14
M  V30 14 1 14 15
M  V30 15 1 15 16
M  V30 16 1 16 17
M  V30 17 1 15 18
M  V30 18 2 18 19
M  V30 19 1 19 20
M  V30 20 2 20 21
M  V30 21 1 21 22
M  V30 22 2 22 23
M  V30 23 1 23 24
M  V30 24 2 24 25
M  V30 25 1 25 26
M  V30 26 2 26 27
M  V30 27 1 6 28
M  V30 28 1 17 11
M  V30 29 1 23 18
M  V30 30 1 27 22
M  V30 31 1 1 29
M  V30 32 1 1 30
M  V30 33 1 2 31
M  V30 34 1 2 32
M  V30 35 1 3 33
M  V30 36 1 3 34
M  V30 37 1 4 35
M  V30 38 1 4 36
M  V30 39 1 5 37
M  V30 40 1 5 38
M  V30 41 1 6 39 CFG=1
M  V30 42 1 9 40
M  V30 43 1 10 41
M  V30 44 1 10 42
M  V30 45 1 12 43
M  V30 46 1 13 44
M  V30 47 1 13 45
M  V30 48 1 14 46
M  V30 49 1 14 47
M  V30 50 1 16 48
M  V30 51 1 16 49
M  V30 52 1 17 50
M  V30 53 1 17 51
M  V30 54 1 19 52
M  V30 55 1 20 53
M  V30 56 1 24 54
M  V30 57 1 26 55
M  V30 58 1 27 56
M  V30 59 1 28 57
M  V30 60 1 28 58
M  V30 END BOND
M  V30 END CTAB
M  END
