
     RDKit          3D

  0  0  0  0  0  0  0  0  0  0999 V3000
M  V30 BEGIN CTAB
M  V30 COUNTS 34 34 0 0 0
M  V30 BEGIN ATOM
M  V30 1 N -6.73423 -0.16095 0.435793 0
M  V30 2 C -5.41828 -0.290206 -0.202985 0
M  V30 3 C -4.52687 -0.95517 0.792795 0
M  V30 4 C -3.14231 -1.24746 0.38167 0
M  V30 5 C -2.28904 -0.131396 0.0137668 0
M  V30 6 O -2.74858 1.00323 -0.281994 0
M  V30 7 N -0.86292 -0.343019 -0.00221172 0
M  V30 8 N 0.0047606 0.666837 -0.339705 0
M  V30 9 C 1.38454 0.598768 -0.0705299 0
M  V30 10 C 1.9962 -0.424161 0.602899 0
M  V30 11 C 3.36407 -0.471952 0.852632 0
M  V30 12 C 4.16336 0.545823 0.409336 0
M  V30 13 C 3.58349 1.57271 -0.260466 0
M  V30 14 C 2.2326 1.62688 -0.508559 0
M  V30 15 S 5.89967 0.576959 0.670786 0
M  V30 16 N 6.76316 -0.191138 -0.604882 0
M  V30 17 O 6.22231 -0.0482374 1.99983 0
M  V30 18 O 6.32579 2.03074 0.740645 0
M  V30 19 H -6.64236 -0.162156 1.48152 0
M  V30 20 H -7.31509 0.581716 0.0592862 0
M  V30 21 H -5.12981 0.742705 -0.462579 0
M  V30 22 H -5.49261 -0.860344 -1.15499 0
M  V30 23 H -4.5317 -0.296312 1.71705 0
M  V30 24 H -5.03738 -1.92373 1.05186 0
M  V30 25 H -2.63522 -1.78234 1.23877 0
M  V30 26 H -3.1837 -2.03272 -0.443579 0
M  V30 27 H -0.507588 -1.30214 0.259862 0
M  V30 28 H -0.349267 1.5277 -0.814684 0
M  V30 29 H 1.35754 -1.24541 0.963322 0
M  V30 30 H 3.80584 -1.3052 1.38503 0
M  V30 31 H 4.24597 2.38951 -0.601759 0
M  V30 32 H 1.81062 2.45958 -1.05096 0
M  V30 33 H 7.03414 -1.16383 -0.420274 0
M  V30 34 H 6.35287 0.0146893 -1.5222 0
M  V30 END ATOM
M  V30 BEGIN BOND
M  V30 1 1 1 2
M  V30 2 1 2 3
M  V30 3 1 3 4
M  V30 4 1 4 5
M  V30 5 2 5 6
M  V30 6 1 5 7
M  V30 7 1 7 8
M  V30 8 1 8 9
M  V30 9 2 9 10
M  V30 10 1 10 11
M  V30 11 2 11 12
M  V30 12 1 12 13
M  V30 13 2 13 14
M  V30 14 1 12 15
M  V30 15 1 15 16
M  V30 16 2 15 17
M  V30 17 2 15 18
M  V30 18 1 14 9
M  V30 19 1 1 19
M  V30 20 1 1 20
M  V30 21 1 2 21
M  V30 22 1 2 22
M  V30 23 1 3 23
M  V30 24 1 3 24
M  V30 25 1 4 25
M  V30 26 1 4 26
M  V30 27 1 7 27
M  V30 28 1 8 28
M  V30 29 1 10 29
M  V30 30 1 11 30
M  V30 31 1 13 31
M  V30 32 1 14 32
M  V30 33 1 16 33
M  V30 34 1 16 34
M  V30 END BOND
M  V30 END CTAB
M  END
