
     RDKit          3D

  0  0  0  0  0  0  0  0  0  0999 V3000
M  V30 BEGIN CTAB
M  V30 COUNTS 45 47 0 0 0
M  V30 BEGIN ATOM
M  V30 1 C -4.90362 1.23615 0.86227 0
M  V30 2 C -4.85749 0.298256 -0.319259 0
M  V30 3 C -3.5499 -0.447743 -0.369503 0
M  V30 4 C -3.48039 -1.38997 -1.54031 0
M  V30 5 C -3.67385 -2.54609 -0.587453 0
M  V30 6 C -3.52717 -1.61163 0.577727 0
M  V30 7 C -2.37191 0.468666 -0.200105 0
M  V30 8 N -1.12903 -0.293734 -0.255067 0
M  V30 9 C 0.111461 0.390632 -0.114775 0
M  V30 10 C 1.30208 -0.273928 -0.158556 0
M  V30 11 C 2.49145 0.41112 -0.0201924 0
M  V30 12 N 2.44956 1.72119 0.155048 0
M  V30 13 C 1.28868 2.40844 0.203039 0
M  V30 14 N 0.13393 1.73664 0.0678023 0
M  V30 15 N 1.25306 3.80869 0.390662 0
M  V30 16 C 3.73266 -0.391181 -0.0806569 0
M  V30 17 C 4.71183 0.158188 -1.12716 0
M  V30 18 C 5.80756 -0.307562 -0.170011 0
M  V30 19 C 4.77611 -0.0733761 0.94465 0
M  V30 20 N 6.03069 -1.71061 -0.321034 0
M  V30 21 H -4.18715 2.05455 0.720902 0
M  V30 22 H -5.95413 1.59006 0.992997 0
M  V30 23 H -4.58679 0.652534 1.75146 0
M  V30 24 H -5.02077 0.843949 -1.28654 0
M  V30 25 H -5.71512 -0.427411 -0.259694 0
M  V30 26 H -4.33118 -1.29328 -2.25646 0
M  V30 27 H -2.50196 -1.43991 -2.06352 0
M  V30 28 H -2.83022 -3.27072 -0.626108 0
M  V30 29 H -4.68401 -2.99951 -0.597596 0
M  V30 30 H -4.40773 -1.61166 1.28134 0
M  V30 31 H -2.57942 -1.69011 1.13603 0
M  V30 32 H -2.35854 1.2826 -0.926101 0
M  V30 33 H -2.41226 0.891117 0.840219 0
M  V30 34 H -1.1228 -1.31707 -0.393001 0
M  V30 35 H 1.26476 -1.35409 -0.305822 0
M  V30 36 H 1.40526 4.22215 1.32167 0
M  V30 37 H 1.07101 4.42044 -0.42326 0
M  V30 38 H 3.60876 -1.46085 -0.230022 0
M  V30 39 H 4.67982 -0.353996 -2.08944 0
M  V30 40 H 4.71179 1.26383 -1.13984 0
M  V30 41 H 6.68577 0.348237 -0.11938 0
M  V30 42 H 4.82151 0.995903 1.26206 0
M  V30 43 H 4.91735 -0.788663 1.75845 0
M  V30 44 H 6.49745 -1.98016 -1.20952 0
M  V30 45 H 6.43291 -2.17009 0.52407 0
M  V30 END ATOM
M  V30 BEGIN BOND
M  V30 1 1 1 2
M  V30 2 1 2 3
M  V30 3 1 3 4
M  V30 4 1 4 5
M  V30 5 1 5 6
M  V30 6 1 3 7
M  V30 7 1 7 8
M  V30 8 1 8 9
M  V30 9 2 9 10
M  V30 10 1 10 11
M  V30 11 2 11 12
M  V30 12 1 12 13
M  V30 13 2 13 14
M  V30 14 1 13 15
M  V30 15 1 11 16
M  V30 16 1 16 17
M  V30 17 1 17 18
M  V30 18 1 18 19
M  V30 19 1 18 20
M  V30 20 1 6 3
M  V30 21 1 14 9
M  V30 22 1 19 16
M  V30 23 1 1 21
M  V30 24 1 1 22
M  V30 25 1 1 23
M  V30 26 1 2 24
M  V30 27 1 2 25
M  V30 28 1 4 26
M  V30 29 1 4 27
M  V30 30 1 5 28
M  V30 31 1 5 29
M  V30 32 1 6 30
M  V30 33 1 6 31
M  V30 34 1 7 32
M  V30 35 1 7 33
M  V30 36 1 8 34
M  V30 37 1 10 35
M  V30 38 1 15 36
M  V30 39 1 15 37
M  V30 40 1 16 38
M  V30 41 1 17 39
M  V30 42 1 17 40
M  V30 43 1 18 41
M  V30 44 1 19 42
M  V30 45 1 19 43
M  V30 46 1 20 44
M  V30 47 1 20 45
M  V30 END BOND
M  V30 END CTAB
M  END
