
     RDKit          3D

  0  0  0  0  0  0  0  0  0  0999 V3000
M  V30 BEGIN CTAB
M  V30 COUNTS 45 47 0 0 0
M  V30 BEGIN ATOM
M  V30 1 N -5.47543 -1.81808 0.168662 0
M  V30 2 C -4.54274 -2.7208 0.822785 0
M  V30 3 C -3.17346 -2.43856 0.274879 0
M  V30 4 C -2.73288 -1.02558 0.521385 0
M  V30 5 N -1.4123 -0.757111 -0.00807089 0
M  V30 6 C -0.80086 0.522275 0.116607 0
M  V30 7 N -1.40246 1.56345 0.725644 0
M  V30 8 C -0.6132 2.64764 0.703749 0
M  V30 9 C -0.692146 3.94777 1.15155 0
M  V30 10 N -1.85366 4.39712 1.83236 0
M  V30 11 N 0.306791 4.82535 0.965817 0
M  V30 12 C 1.43068 4.42484 0.317908 0
M  V30 13 N 1.51518 3.16935 -0.118278 0
M  V30 14 C 0.530481 2.24792 0.0470379 0
M  V30 15 N 0.401926 0.945593 -0.306292 0
M  V30 16 C 1.32636 0.114214 -0.997642 0 CFG=2
M  V30 17 O 1.44979 -1.07905 -0.286658 0
M  V30 18 C 2.67209 -1.6196 -0.563917 0 CFG=2
M  V30 19 C 3.3565 -1.9552 0.755815 0
M  V30 20 O 4.61413 -2.51234 0.509589 0
M  V30 21 C 3.51088 -0.656272 -1.32937 0 CFG=1
M  V30 22 O 3.58566 -0.96632 -2.68946 0
M  V30 23 C 2.69478 0.638004 -1.21684 0 CFG=1
M  V30 24 O 2.7698 1.32212 -2.42872 0
M  V30 25 H -5.64138 -2.04628 -0.800308 0
M  V30 26 H -6.28292 -1.59032 0.740097 0
M  V30 27 H -4.60235 -2.65394 1.91237 0
M  V30 28 H -4.82628 -3.75295 0.486131 0
M  V30 29 H -3.10554 -2.73792 -0.771061 0
M  V30 30 H -2.46099 -3.09611 0.853972 0
M  V30 31 H -3.44891 -0.360912 -0.0403259 0
M  V30 32 H -2.83112 -0.765925 1.57647 0
M  V30 33 H -0.939528 -1.55438 -0.485488 0
M  V30 34 H -2.64808 4.78023 1.28053 0
M  V30 35 H -1.8659 4.32542 2.8665 0
M  V30 36 H 2.26851 5.08318 0.137513 0
M  V30 37 H 0.878396 -0.156233 -1.98001 0
M  V30 38 H 2.56991 -2.55643 -1.1505 0
M  V30 39 H 3.42244 -1.0346 1.37959 0
M  V30 40 H 2.76113 -2.71163 1.32087 0
M  V30 41 H 4.78637 -3.24114 1.17837 0
M  V30 42 H 4.52274 -0.497013 -0.905208 0
M  V30 43 H 4.48116 -0.654702 -2.99697 0
M  V30 44 H 3.14525 1.2024 -0.41208 0
M  V30 45 H 2.35118 0.802521 -3.159 0
M  V30 END ATOM
M  V30 BEGIN BOND
M  V30 1 1 1 2
M  V30 2 1 2 3
M  V30 3 1 3 4
M  V30 4 1 4 5
M  V30 5 1 5 6
M  V30 6 2 6 7
M  V30 7 1 7 8
M  V30 8 2 8 9
M  V30 9 1 9 10
M  V30 10 1 9 11
M  V30 11 2 11 12
M  V30 12 1 12 13
M  V30 13 2 13 14
M  V30 14 1 14 15
M  V30 15 1 15 16
M  V30 16 1 16 17
M  V30 17 1 17 18
M  V30 18 1 18 19
M  V30 19 1 19 20
M  V30 20 1 18 21
M  V30 21 1 21 22
M  V30 22 1 21 23
M  V30 23 1 23 24
M  V30 24 1 15 6
M  V30 25 1 23 16
M  V30 26 1 14 8
M  V30 27 1 1 25
M  V30 28 1 1 26
M  V30 29 1 2 27
M  V30 30 1 2 28
M  V30 31 1 3 29
M  V30 32 1 3 30
M  V30 33 1 4 31
M  V30 34 1 4 32
M  V30 35 1 5 33
M  V30 36 1 10 34
M  V30 37 1 10 35
M  V30 38 1 12 36
M  V30 39 1 16 37 CFG=3
M  V30 40 1 18 38 CFG=3
M  V30 41 1 19 39
M  V30 42 1 19 40
M  V30 43 1 20 41
M  V30 44 1 21 42 CFG=1
M  V30 45 1 22 43
M  V30 46 1 23 44 CFG=1
M  V30 47 1 24 45
M  V30 END BOND
M  V30 END CTAB
M  END
