
     RDKit          3D

  0  0  0  0  0  0  0  0  0  0999 V3000
M  V30 BEGIN CTAB
M  V30 COUNTS 29 29 0 0 0
M  V30 BEGIN ATOM
M  V30 1 C -2.02715 2.10648 -0.269488 0
M  V30 2 C -2.11062 1.17911 0.893389 0
M  V30 3 C -1.41687 -0.164067 0.62311 0
M  V30 4 C -0.000774512 0.0250963 0.32738 0
M  V30 5 N 0.729297 1.17273 0.358317 0
M  V30 6 C 2.00679 0.947206 0.0257695 0
M  V30 7 N 2.10593 -0.368277 -0.224828 0
M  V30 8 C 0.880633 -0.955488 -0.0450172 0
M  V30 9 N 0.688009 -2.34988 -0.244965 0
M  V30 10 N 3.26778 -1.0364 -0.607436 0
M  V30 11 C 3.14017 1.90925 -0.0676081 0
M  V30 12 O -2.06302 -0.858366 -0.365609 0
M  V30 13 C -2.75837 -1.96835 0.106268 0
M  V30 14 H -2.10182 1.55997 -1.24837 0
M  V30 15 H -1.18347 2.81472 -0.241744 0
M  V30 16 H -2.95606 2.74892 -0.24599 0
M  V30 17 H -3.17034 0.936236 1.09355 0
M  V30 18 H -1.61364 1.60673 1.76508 0
M  V30 19 H -1.53668 -0.70988 1.5808 0
M  V30 20 H 0.495924 -2.65759 -1.22572 0
M  V30 21 H 0.742011 -3.00892 0.567737 0
M  V30 22 H 3.50927 -1.98764 -0.260825 0
M  V30 23 H 3.93491 -0.584382 -1.26554 0
M  V30 24 H 4.02981 1.38932 0.358579 0
M  V30 25 H 3.38273 2.1428 -1.1278 0
M  V30 26 H 2.923 2.86319 0.4434 0
M  V30 27 H -3.5331 -1.56485 0.835077 0
M  V30 28 H -3.24903 -2.52265 -0.69906 0
M  V30 29 H -2.11531 -2.66502 0.673367 0
M  V30 END ATOM
M  V30 BEGIN BOND
M  V30 1 1 1 2
M  V30 2 1 2 3
M  V30 3 1 3 4
M  V30 4 1 4 5
M  V30 5 2 5 6
M  V30 6 1 6 7
M  V30 7 1 7 8
M  V30 8 1 8 9
M  V30 9 1 7 10
M  V30 10 1 6 11
M  V30 11 1 3 12
M  V30 12 1 12 13
M  V30 13 2 8 4
M  V30 14 1 1 14
M  V30 15 1 1 15
M  V30 16 1 1 16
M  V30 17 1 2 17
M  V30 18 1 2 18
M  V30 19 1 3 19
M  V30 20 1 9 20
M  V30 21 1 9 21
M  V30 22 1 10 22
M  V30 23 1 10 23
M  V30 24 1 11 24
M  V30 25 1 11 25
M  V30 26 1 11 26
M  V30 27 1 13 27
M  V30 28 1 13 28
M  V30 29 1 13 29
M  V30 END BOND
M  V30 END CTAB
M  END
