
     RDKit          3D

  0  0  0  0  0  0  0  0  0  0999 V3000
M  V30 BEGIN CTAB
M  V30 COUNTS 30 30 0 0 0
M  V30 BEGIN ATOM
M  V30 1 N 4.46687 -0.349671 0.989733 0
M  V30 2 C 4.08664 0.37231 -0.163983 0
M  V30 3 N 4.17431 1.65008 -0.138635 0
M  V30 4 N 3.62762 -0.337413 -1.29332 0
M  V30 5 C 2.44809 -0.777587 -1.46534 0
M  V30 6 N 2.12267 -1.47452 -2.64835 0
M  V30 7 N 1.48464 -0.545231 -0.437973 0
M  V30 8 C 0.0943036 -0.297026 -0.745025 0
M  V30 9 C -0.670207 -0.0908456 0.515697 0
M  V30 10 C -2.09743 0.169684 0.319031 0
M  V30 11 C -2.52797 1.47139 0.17108 0
M  V30 12 C -3.86512 1.78564 -0.0182911 0
M  V30 13 C -4.78048 0.759214 -0.057979 0
M  V30 14 C -4.3949 -0.557381 0.0854505 0
M  V30 15 C -3.05361 -0.818901 0.271516 0
M  V30 16 H 3.88631 -0.432713 1.85072 0
M  V30 17 H 5.41329 -0.828947 0.945972 0
M  V30 18 H 4.51093 2.18558 0.687037 0
M  V30 19 H 1.97333 -2.50297 -2.60324 0
M  V30 20 H 2.0256 -0.999891 -3.56752 0
M  V30 21 H 1.77283 -0.55109 0.562555 0
M  V30 22 H -0.367596 -1.15383 -1.29887 0
M  V30 23 H -0.0187736 0.578231 -1.4455 0
M  V30 24 H -0.465157 -0.949226 1.18683 0
M  V30 25 H -0.225526 0.799576 1.03542 0
M  V30 26 H -1.81457 2.28803 0.200805 0
M  V30 27 H -4.14092 2.82883 -0.128244 0
M  V30 28 H -5.81886 0.998791 -0.204715 0
M  V30 29 H -5.12586 -1.37137 0.0533453 0
M  V30 30 H -2.72045 -1.84875 0.387638 0
M  V30 END ATOM
M  V30 BEGIN BOND
M  V30 1 1 1 2
M  V30 2 2 2 3
M  V30 3 1 2 4
M  V30 4 2 4 5
M  V30 5 1 5 6
M  V30 6 1 5 7
M  V30 7 1 7 8
M  V30 8 1 8 9
M  V30 9 1 9 10
M  V30 10 2 10 11
M  V30 11 1 11 12
M  V30 12 2 12 13
M  V30 13 1 13 14
M  V30 14 2 14 15
M  V30 15 1 15 10
M  V30 16 1 1 16
M  V30 17 1 1 17
M  V30 18 1 3 18
M  V30 19 1 6 19
M  V30 20 1 6 20
M  V30 21 1 7 21
M  V30 22 1 8 22
M  V30 23 1 8 23
M  V30 24 1 9 24
M  V30 25 1 9 25
M  V30 26 1 11 26
M  V30 27 1 12 27
M  V30 28 1 13 28
M  V30 29 1 14 29
M  V30 30 1 15 30
M  V30 END BOND
M  V30 END CTAB
M  END
