
     RDKit          3D

  0  0  0  0  0  0  0  0  0  0999 V3000
M  V30 BEGIN CTAB
M  V30 COUNTS 31 31 0 0 0
M  V30 BEGIN ATOM
M  V30 1 N -2.25498 0.353127 1.8355 0
M  V30 2 C -2.41402 0.400634 0.420244 0
M  V30 3 N -3.56773 0.621865 -0.124174 0
M  V30 4 C -1.25633 0.197025 -0.483964 0
M  V30 5 N -1.68104 0.293388 -1.86099 0
M  V30 6 C -0.666006 -1.16949 -0.277393 0
M  V30 7 C 0.37671 -1.20662 0.810677 0
M  V30 8 C 1.72167 -1.4725 0.213147 0
M  V30 9 C 2.69538 -0.350173 0.358518 0
M  V30 10 C 2.0843 1.01203 0.313374 0
M  V30 11 C 1.07614 1.04149 -0.815136 0
M  V30 12 C -0.274523 1.30934 -0.221083 0
M  V30 13 H -1.59774 0.986876 2.32026 0
M  V30 14 H -2.80354 -0.325342 2.39708 0
M  V30 15 H -3.68968 0.657619 -1.15674 0
M  V30 16 H -2.2852 -0.547119 -2.05376 0
M  V30 17 H -0.818919 0.164077 -2.4472 0
M  V30 18 H -0.214794 -1.49284 -1.24837 0
M  V30 19 H -1.51082 -1.86594 -0.09335 0
M  V30 20 H 0.348094 -0.338586 1.48319 0
M  V30 21 H 0.111762 -2.09433 1.45873 0
M  V30 22 H 1.6034 -1.76517 -0.871901 0
M  V30 23 H 2.20614 -2.3834 0.675465 0
M  V30 24 H 3.40185 -0.416883 -0.52023 0
M  V30 25 H 3.35487 -0.451561 1.25174 0
M  V30 26 H 2.92291 1.74277 0.114242 0
M  V30 27 H 1.65009 1.34175 1.28185 0
M  V30 28 H 1.10065 0.128836 -1.43901 0
M  V30 29 H 1.3569 1.88291 -1.50403 0
M  V30 30 H -0.720758 2.23602 -0.683009 0
M  V30 31 H -0.254794 1.51019 0.866333 0
M  V30 END ATOM
M  V30 BEGIN BOND
M  V30 1 1 1 2
M  V30 2 2 2 3 CFG=2
M  V30 3 1 2 4
M  V30 4 1 4 5
M  V30 5 1 4 6
M  V30 6 1 6 7
M  V30 7 1 7 8
M  V30 8 1 8 9
M  V30 9 1 9 10
M  V30 10 1 10 11
M  V30 11 1 11 12
M  V30 12 1 12 4
M  V30 13 1 1 13
M  V30 14 1 1 14
M  V30 15 1 3 15
M  V30 16 1 5 16
M  V30 17 1 5 17
M  V30 18 1 6 18
M  V30 19 1 6 19
M  V30 20 1 7 20
M  V30 21 1 7 21
M  V30 22 1 8 22
M  V30 23 1 8 23
M  V30 24 1 9 24
M  V30 25 1 9 25
M  V30 26 1 10 26
M  V30 27 1 10 27
M  V30 28 1 11 28
M  V30 29 1 11 29
M  V30 30 1 12 30
M  V30 31 1 12 31
M  V30 END BOND
M  V30 END CTAB
M  END
