
     RDKit          3D

  0  0  0  0  0  0  0  0  0  0999 V3000
M  V30 BEGIN CTAB
M  V30 COUNTS 36 37 0 0 0
M  V30 BEGIN ATOM
M  V30 1 C -2.14643 -1.26411 -1.54442 0
M  V30 2 C -2.14891 -0.573029 -0.200379 0
M  V30 3 C -1.99464 -1.65836 0.869862 0
M  V30 4 N -3.45431 -0.0136982 -0.0145256 0
M  V30 5 C -3.70151 1.20896 0.221351 0
M  V30 6 N -5.05073 1.61785 0.383025 0
M  V30 7 N -2.68004 2.15129 0.323942 0
M  V30 8 C -1.45384 1.80415 0.181434 0
M  V30 9 N -0.40982 2.79874 0.291936 0
M  V30 10 N -1.13387 0.429896 -0.0863884 0
M  V30 11 C 0.25374 0.160884 -0.225256 0
M  V30 12 C 1.04763 -0.184674 0.849824 0
M  V30 13 C 2.3922 -0.445969 0.719066 0
M  V30 14 C 3.00165 -0.372754 -0.494718 0
M  V30 15 C 2.23646 -0.0290386 -1.59508 0
M  V30 16 C 0.871455 0.234538 -1.45216 0
M  V30 17 C 4.44227 -0.647267 -0.66796 0
M  V30 18 O 4.95117 -0.567472 -1.7933 0
M  V30 19 C 5.26658 -1.01403 0.495272 0
M  V30 20 Cl 5.92931 0.46433 1.2189 0
M  V30 21 H -2.75382 -0.73104 -2.3045 0
M  V30 22 H -2.62957 -2.27784 -1.43534 0
M  V30 23 H -1.15622 -1.43976 -1.95596 0
M  V30 24 H -1.92757 -1.19913 1.88158 0
M  V30 25 H -2.93181 -2.25883 0.815864 0
M  V30 26 H -1.16588 -2.33633 0.648696 0
M  V30 27 H -5.4759 2.29313 -0.278662 0
M  V30 28 H -5.61888 1.24494 1.16198 0
M  V30 29 H 0.055802 3.141 -0.56635 0
M  V30 30 H -0.119152 3.1764 1.22522 0
M  V30 31 H 0.577193 -0.248261 1.82936 0
M  V30 32 H 2.95357 -0.70859 1.58943 0
M  V30 33 H 2.74056 0.0232137 -2.54899 0
M  V30 34 H 0.346403 0.494817 -2.3544 0
M  V30 35 H 6.15421 -1.63133 0.181877 0
M  V30 36 H 4.73271 -1.64262 1.23924 0
M  V30 END ATOM
M  V30 BEGIN BOND
M  V30 1 1 1 2
M  V30 2 1 2 3
M  V30 3 1 2 4
M  V30 4 2 4 5
M  V30 5 1 5 6
M  V30 6 1 5 7
M  V30 7 2 7 8
M  V30 8 1 8 9
M  V30 9 1 8 10
M  V30 10 1 10 11
M  V30 11 2 11 12
M  V30 12 1 12 13
M  V30 13 2 13 14
M  V30 14 1 14 15
M  V30 15 2 15 16
M  V30 16 1 14 17
M  V30 17 2 17 18
M  V30 18 1 17 19
M  V30 19 1 19 20
M  V30 20 1 10 2
M  V30 21 1 16 11
M  V30 22 1 1 21
M  V30 23 1 1 22
M  V30 24 1 1 23
M  V30 25 1 3 24
M  V30 26 1 3 25
M  V30 27 1 3 26
M  V30 28 1 6 27
M  V30 29 1 6 28
M  V30 30 1 9 29
M  V30 31 1 9 30
M  V30 32 1 12 31
M  V30 33 1 13 32
M  V30 34 1 15 33
M  V30 35 1 16 34
M  V30 36 1 19 35
M  V30 37 1 19 36
M  V30 END BOND
M  V30 END CTAB
M  END
