
     RDKit          3D

  0  0  0  0  0  0  0  0  0  0999 V3000
M  V30 BEGIN CTAB
M  V30 COUNTS 25 25 0 0 0
M  V30 BEGIN ATOM
M  V30 1 N -4.61327 0.466132 0.862874 0
M  V30 2 C -3.17575 0.141725 0.958757 0
M  V30 3 C -2.61598 0.09413 -0.427165 0
M  V30 4 N -1.19076 -0.231752 -0.46517 0
M  V30 5 C -0.235634 0.591286 0.105301 0
M  V30 6 O -0.687444 1.66857 0.660563 0
M  V30 7 C 1.2041 0.39226 0.155205 0
M  V30 8 S 2.36189 1.47674 0.892671 0
M  V30 9 C 3.77827 0.598654 0.560292 0
M  V30 10 N 3.31713 -0.44697 -0.0770381 0
M  V30 11 C 2.01998 -0.58356 -0.29938 0
M  V30 12 C 1.52186 -1.82462 -1.04937 0
M  V30 13 N 5.15933 0.920478 0.89581 0
M  V30 14 H -4.98942 0.187489 -0.0591707 0
M  V30 15 H -4.67396 1.50168 0.948147 0
M  V30 16 H -3.16725 -0.874094 1.44599 0
M  V30 17 H -2.67103 0.886333 1.57648 0
M  V30 18 H -2.76441 1.10297 -0.926417 0
M  V30 19 H -3.17912 -0.652547 -1.01422 0
M  V30 20 H -1.00318 -1.14939 -0.970881 0
M  V30 21 H 1.04995 -1.44445 -1.95218 0
M  V30 22 H 0.833697 -2.39802 -0.413459 0
M  V30 23 H 2.38498 -2.50075 -1.27307 0
M  V30 24 H 5.55615 0.676963 1.82643 0
M  V30 25 H 5.77984 1.40074 0.213159 0
M  V30 END ATOM
M  V30 BEGIN BOND
M  V30 1 1 1 2
M  V30 2 1 2 3
M  V30 3 1 3 4
M  V30 4 1 4 5
M  V30 5 2 5 6
M  V30 6 1 5 7
M  V30 7 1 7 8
M  V30 8 1 8 9
M  V30 9 2 9 10
M  V30 10 1 10 11
M  V30 11 1 11 12
M  V30 12 1 9 13
M  V30 13 2 11 7
M  V30 14 1 1 14
M  V30 15 1 1 15
M  V30 16 1 2 16
M  V30 17 1 2 17
M  V30 18 1 3 18
M  V30 19 1 3 19
M  V30 20 1 4 20
M  V30 21 1 12 21
M  V30 22 1 12 22
M  V30 23 1 12 23
M  V30 24 1 13 24
M  V30 25 1 13 25
M  V30 END BOND
M  V30 END CTAB
M  END
