
     RDKit          3D

  0  0  0  0  0  0  0  0  0  0999 V3000
M  V30 BEGIN CTAB
M  V30 COUNTS 22 22 0 0 0
M  V30 BEGIN ATOM
M  V30 1 N -3.35066 0.390249 -0.378038 0
M  V30 2 C -1.95692 0.746539 -0.423931 0
M  V30 3 C -1.13508 -0.466379 -0.0930274 0
M  V30 4 C 0.317108 -0.214125 -0.110705 0
M  V30 5 C 1.13479 -1.1925 0.437947 0
M  V30 6 C 2.50698 -1.04283 0.465483 0
M  V30 7 C 3.10785 0.0895966 -0.0543688 0
M  V30 8 C 2.28391 1.04506 -0.592066 0
M  V30 9 C 0.907238 0.909081 -0.626756 0
M  V30 10 Br 3.08648 2.61611 -1.31556 0
M  V30 11 Br 5.01717 0.283983 -0.00916661 0
M  V30 12 N -1.46609 -0.965386 1.23105 0
M  V30 13 H -3.97174 0.986463 -0.930785 0
M  V30 14 H -3.65241 0.224027 0.602796 0
M  V30 15 H -1.7324 0.99488 -1.49981 0
M  V30 16 H -1.72553 1.62239 0.177875 0
M  V30 17 H -1.33364 -1.28798 -0.81056 0
M  V30 18 H 0.723289 -2.10967 0.864581 0
M  V30 19 H 3.12517 -1.8264 0.902171 0
M  V30 20 H 0.259312 1.66426 -1.05149 0
M  V30 21 H -0.848358 -0.488065 1.93116 0
M  V30 22 H -1.29648 -1.97931 1.2832 0
M  V30 END ATOM
M  V30 BEGIN BOND
M  V30 1 1 1 2
M  V30 2 1 2 3
M  V30 3 1 3 4
M  V30 4 2 4 5
M  V30 5 1 5 6
M  V30 6 2 6 7
M  V30 7 1 7 8
M  V30 8 2 8 9
M  V30 9 1 8 10
M  V30 10 1 7 11
M  V30 11 1 3 12
M  V30 12 1 9 4
M  V30 13 1 1 13
M  V30 14 1 1 14
M  V30 15 1 2 15
M  V30 16 1 2 16
M  V30 17 1 3 17
M  V30 18 1 5 18
M  V30 19 1 6 19
M  V30 20 1 9 20
M  V30 21 1 12 21
M  V30 22 1 12 22
M  V30 END BOND
M  V30 END CTAB
M  END
