
     RDKit          3D

  0  0  0  0  0  0  0  0  0  0999 V3000
M  V30 BEGIN CTAB
M  V30 COUNTS 48 50 0 0 0
M  V30 BEGIN ATOM
M  V30 1 C -4.53578 1.45956 3.09063 0
M  V30 2 O -3.82007 1.18183 1.90387 0
M  V30 3 C -4.4838 1.00079 0.700748 0
M  V30 4 C -5.86164 1.0911 0.65155 0
M  V30 5 C -6.5373 0.913598 -0.537507 0
M  V30 6 N -7.94594 1.0075 -0.579475 0
M  V30 7 C -5.83782 0.644066 -1.68741 0
M  V30 8 C -4.48125 0.560089 -1.61305 0
M  V30 9 C -3.76747 0.730515 -0.446689 0
M  V30 10 C -2.31957 0.620252 -0.476076 0
M  V30 11 O -1.75918 0.371007 -1.57185 0
M  V30 12 O -1.51681 0.772843 0.629551 0
M  V30 13 C -0.128238 0.678124 0.672443 0
M  V30 14 C 0.409761 -0.645712 0.263052 0
M  V30 15 N -0.358721 -1.72549 0.0375207 0
M  V30 16 C 0.170573 -2.90604 -0.332047 0
M  V30 17 N -0.658898 -4.05351 -0.570506 0
M  V30 18 N 1.49541 -2.98972 -0.473851 0
M  V30 19 C 2.32509 -1.90977 -0.253765 0
M  V30 20 N 1.71466 -0.776455 0.110205 0
M  V30 21 N 3.70337 -2.03964 -0.436042 0
M  V30 22 C 4.68963 -1.06455 -0.245748 0
M  V30 23 C 4.57768 0.0661508 0.519821 0
M  V30 24 C 5.58078 1.01918 0.655934 0
M  V30 25 C 6.75936 0.827526 -0.0106782 0
M  V30 26 C 6.92967 -0.298769 -0.799411 0
M  V30 27 C 5.93086 -1.19934 -0.904982 0
M  V30 28 C 7.8719 1.81523 0.0965761 0
M  V30 29 Cl -6.70526 0.422694 -3.1797 0
M  V30 30 H -3.89214 1.62631 3.95167 0
M  V30 31 H -5.24869 0.648059 3.34134 0
M  V30 32 H -5.15998 2.38921 2.97768 0
M  V30 33 H -6.41719 1.30436 1.56062 0
M  V30 34 H -8.53042 0.709856 0.23556 0
M  V30 35 H -8.48314 1.37258 -1.40976 0
M  V30 36 H -3.9433 0.345952 -2.53338 0
M  V30 37 H 0.21195 0.854677 1.70519 0
M  V30 38 H 0.381816 1.43216 0.0389593 0
M  V30 39 H -1.3102 -4.11718 -1.37043 0
M  V30 40 H -0.591882 -4.84263 0.0940182 0
M  V30 41 H 4.04803 -2.99902 -0.756766 0
M  V30 42 H 3.64886 0.223964 1.07419 0
M  V30 43 H 5.43478 1.88079 1.26659 0
M  V30 44 H 7.89078 -0.402948 -1.30973 0
M  V30 45 H 6.04726 -2.08581 -1.51835 0
M  V30 46 H 7.89993 2.28432 1.09271 0
M  V30 47 H 8.81656 1.23524 -0.0109357 0
M  V30 48 H 7.75599 2.56706 -0.712028 0
M  V30 END ATOM
M  V30 BEGIN BOND
M  V30 1 1 1 2
M  V30 2 1 2 3
M  V30 3 2 3 4
M  V30 4 1 4 5
M  V30 5 1 5 6
M  V30 6 2 5 7
M  V30 7 1 7 8
M  V30 8 2 8 9
M  V30 9 1 9 10
M  V30 10 2 10 11
M  V30 11 1 10 12
M  V30 12 1 12 13
M  V30 13 1 13 14
M  V30 14 2 14 15
M  V30 15 1 15 16
M  V30 16 1 16 17
M  V30 17 2 16 18
M  V30 18 1 18 19
M  V30 19 2 19 20
M  V30 20 1 19 21
M  V30 21 1 21 22
M  V30 22 2 22 23
M  V30 23 1 23 24
M  V30 24 2 24 25
M  V30 25 1 25 26
M  V30 26 2 26 27
M  V30 27 1 25 28
M  V30 28 1 7 29
M  V30 29 1 9 3
M  V30 30 1 20 14
M  V30 31 1 27 22
M  V30 32 1 1 30
M  V30 33 1 1 31
M  V30 34 1 1 32
M  V30 35 1 4 33
M  V30 36 1 6 34
M  V30 37 1 6 35
M  V30 38 1 8 36
M  V30 39 1 13 37
M  V30 40 1 13 38
M  V30 41 1 17 39
M  V30 42 1 17 40
M  V30 43 1 21 41
M  V30 44 1 23 42
M  V30 45 1 24 43
M  V30 46 1 26 44
M  V30 47 1 27 45
M  V30 48 1 28 46
M  V30 49 1 28 47
M  V30 50 1 28 48
M  V30 END BOND
M  V30 END CTAB
M  END
