
     RDKit          3D

  0  0  0  0  0  0  0  0  0  0999 V3000
M  V30 BEGIN CTAB
M  V30 COUNTS 26 27 0 0 0
M  V30 BEGIN ATOM
M  V30 1 N -2.63827 0.392582 -0.215526 0
M  V30 2 C -1.25696 0.167166 -0.0706064 0
M  V30 3 C -0.597771 1.46892 0.339793 0
M  V30 4 C 0.884817 1.37897 0.113776 0
M  V30 5 C 1.2709 -0.0649701 0.0700947 0
M  V30 6 N 2.68805 -0.174628 0.214938 0
M  V30 7 C 0.572846 -0.883553 1.16155 0
M  V30 8 C -0.912578 -0.827074 1.04548 0
M  V30 9 C 0.796465 -0.675054 -1.24965 0
M  V30 10 C -0.673796 -0.378688 -1.35829 0
M  V30 11 H -3.15612 -0.126555 -0.900958 0
M  V30 12 H -3.08642 1.09143 0.348223 0
M  V30 13 H -0.738663 1.55916 1.4569 0
M  V30 14 H -1.03402 2.33012 -0.184479 0
M  V30 15 H 1.08865 1.83052 -0.886393 0
M  V30 16 H 1.42442 1.93561 0.898356 0
M  V30 17 H 2.98864 -0.800826 0.9685 0
M  V30 18 H 3.08955 -0.402248 -0.722972 0
M  V30 19 H 0.957478 -0.645827 2.16053 0
M  V30 20 H 0.877592 -1.94982 0.944641 0
M  V30 21 H -1.39187 -1.80062 0.862118 0
M  V30 22 H -1.30002 -0.347922 1.98648 0
M  V30 23 H 0.888511 -1.79062 -1.09179 0
M  V30 24 H 1.38983 -0.329433 -2.10302 0
M  V30 25 H -1.25605 -1.29517 -1.5982 0
M  V30 26 H -0.875194 0.338542 -2.18949 0
M  V30 END ATOM
M  V30 BEGIN BOND
M  V30 1 1 1 2
M  V30 2 1 2 3
M  V30 3 1 3 4
M  V30 4 1 4 5
M  V30 5 1 5 6
M  V30 6 1 5 7
M  V30 7 1 7 8
M  V30 8 1 5 9
M  V30 9 1 9 10
M  V30 10 1 8 2
M  V30 11 1 10 2
M  V30 12 1 1 11
M  V30 13 1 1 12
M  V30 14 1 3 13
M  V30 15 1 3 14
M  V30 16 1 4 15
M  V30 17 1 4 16
M  V30 18 1 6 17
M  V30 19 1 6 18
M  V30 20 1 7 19
M  V30 21 1 7 20
M  V30 22 1 8 21
M  V30 23 1 8 22
M  V30 24 1 9 23
M  V30 25 1 9 24
M  V30 26 1 10 25
M  V30 27 1 10 26
M  V30 END BOND
M  V30 END CTAB
M  END
