
     RDKit          3D

  0  0  0  0  0  0  0  0  0  0999 V3000
M  V30 BEGIN CTAB
M  V30 COUNTS 42 44 0 0 0
M  V30 BEGIN ATOM
M  V30 1 C -2.90832 1.92488 -1.28879 0
M  V30 2 C -3.43976 0.788435 -0.494202 0
M  V30 3 C -2.63337 -0.195042 0.026197 0
M  V30 4 N -1.24984 -0.137844 0.0311547 0
M  V30 5 C -0.487071 1.07516 -0.14412 0
M  V30 6 C 0.83192 0.962589 0.707221 0
M  V30 7 N 1.6577 0.0185886 0.0236689 0
M  V30 8 C 0.947277 -1.06914 -0.645059 0
M  V30 9 C -0.382683 -1.33542 0.115944 0
M  V30 10 C 3.06968 0.10239 -0.0208191 0
M  V30 11 C 3.82516 -0.812582 -0.716398 0
M  V30 12 C 5.21653 -0.723835 -0.754429 0
M  V30 13 C 5.88471 0.286424 -0.0946528 0
M  V30 14 C 5.12148 1.19406 0.596325 0
M  V30 15 C 3.74283 1.10971 0.636541 0
M  V30 16 C 7.32038 0.398412 -0.119611 0
M  V30 17 N 8.48478 0.486389 -0.120516 0
M  V30 18 C -3.27725 -1.25934 0.694568 0
M  V30 19 N -2.50665 -2.26705 1.28272 0
M  V30 20 N -4.6236 -1.25474 0.785979 0
M  V30 21 C -5.41295 -0.302959 0.285367 0
M  V30 22 N -6.84308 -0.366258 0.424096 0
M  V30 23 N -4.80091 0.69838 -0.343901 0
M  V30 24 H -2.17368 1.62922 -2.04414 0
M  V30 25 H -2.7061 2.83446 -0.725722 0
M  V30 26 H -3.80716 2.23181 -1.9624 0
M  V30 27 H -0.926379 1.97048 0.331294 0
M  V30 28 H -0.10867 1.20336 -1.16813 0
M  V30 29 H 1.29076 1.95539 0.615115 0
M  V30 30 H 0.542741 0.716371 1.72499 0
M  V30 31 H 1.54024 -1.98724 -0.4462 0
M  V30 32 H 0.753146 -0.871769 -1.70062 0
M  V30 33 H -0.783625 -2.18457 -0.456891 0
M  V30 34 H -0.036578 -1.52743 1.13276 0
M  V30 35 H 3.36999 -1.62677 -1.25481 0
M  V30 36 H 5.78634 -1.44356 -1.2998 0
M  V30 37 H 5.66 1.98685 1.11304 0
M  V30 38 H 3.23577 1.87515 1.20979 0
M  V30 39 H -2.02856 -2.08558 2.19346 0
M  V30 40 H -2.38701 -3.21582 0.866446 0
M  V30 41 H -7.47839 -0.36764 -0.37986 0
M  V30 42 H -7.2798 -0.413939 1.3844 0
M  V30 END ATOM
M  V30 BEGIN BOND
M  V30 1 1 1 2
M  V30 2 2 2 3
M  V30 3 1 3 4
M  V30 4 1 4 5
M  V30 5 1 5 6
M  V30 6 1 6 7
M  V30 7 1 7 8
M  V30 8 1 8 9
M  V30 9 1 7 10
M  V30 10 2 10 11
M  V30 11 1 11 12
M  V30 12 2 12 13
M  V30 13 1 13 14
M  V30 14 2 14 15
M  V30 15 1 13 16
M  V30 16 3 16 17
M  V30 17 1 3 18
M  V30 18 1 18 19
M  V30 19 2 18 20
M  V30 20 1 20 21
M  V30 21 1 21 22
M  V30 22 2 21 23
M  V30 23 1 23 2
M  V30 24 1 9 4
M  V30 25 1 15 10
M  V30 26 1 1 24
M  V30 27 1 1 25
M  V30 28 1 1 26
M  V30 29 1 5 27
M  V30 30 1 5 28
M  V30 31 1 6 29
M  V30 32 1 6 30
M  V30 33 1 8 31
M  V30 34 1 8 32
M  V30 35 1 9 33
M  V30 36 1 9 34
M  V30 37 1 11 35
M  V30 38 1 12 36
M  V30 39 1 14 37
M  V30 40 1 15 38
M  V30 41 1 19 39
M  V30 42 1 19 40
M  V30 43 1 22 41
M  V30 44 1 22 42
M  V30 END BOND
M  V30 END CTAB
M  END
