
     RDKit          3D

  0  0  0  0  0  0  0  0  0  0999 V3000
M  V30 BEGIN CTAB
M  V30 COUNTS 18 18 0 0 0
M  V30 BEGIN ATOM
M  V30 1 N 2.40728 -1.65026 -0.261377 0
M  V30 2 C 1.50978 -0.573584 -0.139146 0
M  V30 3 C 1.90773 0.734214 -0.360644 0
M  V30 4 C 0.999107 1.7686 -0.231677 0
M  V30 5 C -0.299868 1.48057 0.118265 0
M  V30 6 C -0.686413 0.180615 0.336191 0
M  V30 7 C 0.214433 -0.860719 0.209809 0
M  V30 8 C -2.05316 -0.140933 0.706132 0
M  V30 9 S -2.42014 -0.204153 2.28789 0
M  V30 10 N -2.99027 -0.381439 -0.325577 0
M  V30 11 Br -1.59455 2.85764 0.311078 0
M  V30 12 H 3.04074 -1.88326 0.516491 0
M  V30 13 H 2.45352 -2.22783 -1.12391 0
M  V30 14 H 2.93697 0.930336 -0.6349 0
M  V30 15 H 1.34863 2.77947 -0.413294 0
M  V30 16 H -0.128621 -1.88088 0.390689 0
M  V30 17 H -3.17032 0.374049 -1.02128 0
M  V30 18 H -3.47483 -1.30244 -0.364739 0
M  V30 END ATOM
M  V30 BEGIN BOND
M  V30 1 1 1 2
M  V30 2 2 2 3
M  V30 3 1 3 4
M  V30 4 2 4 5
M  V30 5 1 5 6
M  V30 6 2 6 7
M  V30 7 1 6 8
M  V30 8 2 8 9
M  V30 9 1 8 10
M  V30 10 1 5 11
M  V30 11 1 7 2
M  V30 12 1 1 12
M  V30 13 1 1 13
M  V30 14 1 3 14
M  V30 15 1 4 15
M  V30 16 1 7 16
M  V30 17 1 10 17
M  V30 18 1 10 18
M  V30 END BOND
M  V30 END CTAB
M  END
