
     RDKit          3D

  0  0  0  0  0  0  0  0  0  0999 V3000
M  V30 BEGIN CTAB
M  V30 COUNTS 27 27 0 0 0
M  V30 BEGIN ATOM
M  V30 1 C 2.77355 -0.435409 1.47416 0
M  V30 2 C 2.37214 -0.942954 0.129885 0
M  V30 3 C 2.36843 0.128871 -0.934116 0
M  V30 4 C 1.42953 1.24901 -0.631474 0
M  V30 5 C 0.016777 0.787297 -0.506068 0
M  V30 6 N -0.50404 0.394991 0.670767 0
M  V30 7 C -1.77599 -0.0262657 0.811206 0
M  V30 8 N -2.31824 -0.436362 2.0449 0
M  V30 9 C -2.54346 -0.0337733 -0.360127 0
M  V30 10 N -3.87889 -0.474514 -0.220521 0
M  V30 11 C -2.02404 0.361814 -1.55588 0
M  V30 12 S -2.99097 0.324252 -2.88854 0
M  V30 13 N -0.74762 0.768495 -1.61506 0
M  V30 14 H 3.14086 0.608479 1.42993 0
M  V30 15 H 3.59604 -1.07965 1.89 0
M  V30 16 H 1.96579 -0.475342 2.2345 0
M  V30 17 H 3.10674 -1.71854 -0.216364 0
M  V30 18 H 1.37977 -1.44192 0.155328 0
M  V30 19 H 3.38368 0.54099 -1.01893 0
M  V30 20 H 2.14816 -0.376612 -1.89774 0
M  V30 21 H 1.72709 1.68835 0.342173 0
M  V30 22 H 1.46941 1.97508 -1.45323 0
M  V30 23 H -2.67059 0.278024 2.69478 0
M  V30 24 H -2.35993 -1.43346 2.28921 0
M  V30 25 H -4.66327 0.0988868 -0.527577 0
M  V30 26 H -4.05426 -1.40538 0.205905 0
M  V30 27 H -0.346674 1.07563 -2.54711 0
M  V30 END ATOM
M  V30 BEGIN BOND
M  V30 1 1 1 2
M  V30 2 1 2 3
M  V30 3 1 3 4
M  V30 4 1 4 5
M  V30 5 2 5 6
M  V30 6 1 6 7
M  V30 7 1 7 8
M  V30 8 2 7 9
M  V30 9 1 9 10
M  V30 10 1 9 11
M  V30 11 2 11 12
M  V30 12 1 11 13
M  V30 13 1 13 5
M  V30 14 1 1 14
M  V30 15 1 1 15
M  V30 16 1 1 16
M  V30 17 1 2 17
M  V30 18 1 2 18
M  V30 19 1 3 19
M  V30 20 1 3 20
M  V30 21 1 4 21
M  V30 22 1 4 22
M  V30 23 1 8 23
M  V30 24 1 8 24
M  V30 25 1 10 25
M  V30 26 1 10 26
M  V30 27 1 13 27
M  V30 END BOND
M  V30 END CTAB
M  END
