
     RDKit          3D

  0  0  0  0  0  0  0  0  0  0999 V3000
M  V30 BEGIN CTAB
M  V30 COUNTS 40 41 0 0 0
M  V30 BEGIN ATOM
M  V30 1 C -1.82002 2.56488 1.15099 0
M  V30 2 C -2.07217 2.11267 -0.248075 0
M  V30 3 C -2.64836 0.745544 -0.291387 0
M  V30 4 C -1.88001 -0.382084 -0.172268 0
M  V30 5 C -2.46157 -1.66034 -0.19891 0
M  V30 6 N -1.60619 -2.7821 -0.066424 0
M  V30 7 N -3.78823 -1.71506 -0.345542 0
M  V30 8 C -4.54784 -0.613484 -0.463466 0
M  V30 9 N -5.96597 -0.689603 -0.616284 0
M  V30 10 N -4.00582 0.606005 -0.439255 0
M  V30 11 C -0.445307 -0.313361 -0.0206349 0
M  V30 12 C 0.355658 0.0686489 -1.0447 0
M  V30 13 C 1.74604 0.114495 -0.949467 0
M  V30 14 C 2.33894 -0.244404 0.233379 0
M  V30 15 C 1.52047 -0.638998 1.29529 0
M  V30 16 C 0.162356 -0.675806 1.18108 0
M  V30 17 N 3.74229 -0.268554 0.421276 0
M  V30 18 C 4.56288 -1.36678 -0.0645945 0
M  V30 19 C 4.3835 0.834054 1.11907 0
M  V30 20 N 2.42335 0.574823 -2.08814 0 CHG=1
M  V30 21 O 1.8441 1.52741 -2.92889 0 CHG=-1
M  V30 22 O 3.53862 0.19405 -2.43674 0
M  V30 23 H -1.8188 3.67813 1.21334 0
M  V30 24 H -0.869118 2.17857 1.51927 0
M  V30 25 H -2.64812 2.13721 1.78801 0
M  V30 26 H -1.17161 2.20826 -0.893748 0
M  V30 27 H -2.84747 2.78237 -0.735259 0
M  V30 28 H -0.995063 -3.03372 -0.871037 0
M  V30 29 H -1.53821 -3.38375 0.782033 0
M  V30 30 H -6.60875 -0.61417 0.190329 0
M  V30 31 H -6.38939 -0.826595 -1.56028 0
M  V30 32 H -0.111802 0.350114 -1.97859 0
M  V30 33 H 2.04849 -0.912494 2.21243 0
M  V30 34 H -0.4356 -0.990128 2.0381 0
M  V30 35 H 4.88948 -1.98242 0.811651 0
M  V30 36 H 5.43018 -0.932492 -0.596935 0
M  V30 37 H 4.02006 -2.03229 -0.735422 0
M  V30 38 H 5.46165 0.861368 0.841652 0
M  V30 39 H 4.25369 0.740383 2.21277 0
M  V30 40 H 3.95369 1.77965 0.735382 0
M  V30 END ATOM
M  V30 BEGIN BOND
M  V30 1 1 1 2
M  V30 2 1 2 3
M  V30 3 2 3 4
M  V30 4 1 4 5
M  V30 5 1 5 6
M  V30 6 2 5 7
M  V30 7 1 7 8
M  V30 8 1 8 9
M  V30 9 2 8 10
M  V30 10 1 4 11
M  V30 11 2 11 12
M  V30 12 1 12 13
M  V30 13 2 13 14
M  V30 14 1 14 15
M  V30 15 2 15 16
M  V30 16 1 14 17
M  V30 17 1 17 18
M  V30 18 1 17 19
M  V30 19 1 13 20
M  V30 20 1 20 21
M  V30 21 2 20 22
M  V30 22 1 10 3
M  V30 23 1 16 11
M  V30 24 1 1 23
M  V30 25 1 1 24
M  V30 26 1 1 25
M  V30 27 1 2 26
M  V30 28 1 2 27
M  V30 29 1 6 28
M  V30 30 1 6 29
M  V30 31 1 9 30
M  V30 32 1 9 31
M  V30 33 1 12 32
M  V30 34 1 15 33
M  V30 35 1 16 34
M  V30 36 1 18 35
M  V30 37 1 18 36
M  V30 38 1 18 37
M  V30 39 1 19 38
M  V30 40 1 19 39
M  V30 41 1 19 40
M  V30 END BOND
M  V30 END CTAB
M  END
