
     RDKit          3D

  0  0  0  0  0  0  0  0  0  0999 V3000
M  V30 BEGIN CTAB
M  V30 COUNTS 113 116 0 0 0
M  V30 BEGIN ATOM
M  V30 1 C 12.7705 2.07736 -1.26031 0
M  V30 2 C 11.5265 1.9784 -0.408767 0
M  V30 3 S 11.1967 0.211981 -0.148164 0
M  V30 4 C 9.69723 -0.0193503 0.850636 0
M  V30 5 S 9.7726 0.552822 2.49849 0
M  V30 6 C 10.883 -0.149966 3.65734 0
M  V30 7 C 10.5388 -1.54307 4.11647 0
M  V30 8 C 9.02035 -1.27737 0.493518 0 CFG=2
M  V30 9 C 9.84661 -2.53927 0.610336 0
M  V30 10 C 10.2307 -2.91039 -0.816284 0
M  V30 11 F 11.6213 -2.85766 -0.961046 0
M  V30 12 F 9.85881 -4.21356 -1.13364 0
M  V30 13 C 9.53122 -1.95636 -1.70148 0
M  V30 14 N 8.46556 -1.3391 -0.837769 0
M  V30 15 C 7.26566 -0.967639 -1.45933 0
M  V30 16 O 7.21772 -1.28001 -2.74044 0
M  V30 17 C 6.08266 -0.320001 -0.980542 0
M  V30 18 C 5.0065 -0.196212 -1.88149 0
M  V30 19 N 5.07598 -0.747752 -3.20014 0
M  V30 20 C 3.84536 0.451451 -1.54091 0
M  V30 21 C 3.67572 1.01221 -0.296579 0
M  V30 22 O 2.47948 1.66101 0.0248739 0
M  V30 23 C 1.37865 1.69115 -0.871359 0
M  V30 24 C 0.767744 0.322152 -1.04128 0
M  V30 25 C -0.323164 0.242478 -2.06817 0
M  V30 26 C -0.8256 -1.1926 -2.14986 0
M  V30 27 C -1.49112 -1.63967 -0.837347 0
M  V30 28 O -2.54745 -1.01216 -0.497086 0
M  V30 29 C -3.60858 -0.346986 -0.150575 0
M  V30 30 C -3.62389 1.042 0.0119888 0
M  V30 31 C -4.7222 1.74847 0.367057 0
M  V30 32 N -4.62485 3.1421 0.486065 0
M  V30 33 C -5.93638 1.0815 0.594307 0
M  V30 34 C -5.94645 -0.266546 0.44463 0
M  V30 35 C -4.84984 -0.978617 0.0898716 0
M  V30 36 O -4.86466 -2.383 -0.0593245 0
M  V30 37 C -6.04354 -3.12295 0.164143 0
M  V30 38 C -7.09633 1.86738 1.02407 0
M  V30 39 O -6.82173 3.13596 1.24561 0
M  V30 40 N -8.4087 1.51498 1.23775 0
M  V30 41 C -9.37183 2.54357 1.78571 0
M  V30 42 C -9.91316 1.75145 2.98785 0
M  V30 43 F -11.1992 2.09429 3.3004 0
M  V30 44 F -9.11194 2.05211 4.08913 0
M  V30 45 C -9.71632 0.302395 2.62213 0
M  V30 46 C -9.26599 0.400059 1.09243 0 CFG=1
M  V30 47 C -10.5901 0.635333 0.386651 0
M  V30 48 S -10.4449 1.24445 -1.24354 0
M  V30 49 C -9.88216 0.175117 -2.52894 0
M  V30 50 C -8.44787 -0.205826 -2.45428 0
M  V30 51 S -11.3426 -1.0599 0.305811 0
M  V30 52 C -12.9081 -0.996419 -0.600077 0
M  V30 53 C -13.9779 -0.210483 0.115746 0
M  V30 54 C 4.70466 0.899675 0.582659 0
M  V30 55 O 4.5885 1.45007 1.86105 0
M  V30 56 C 5.6807 1.30567 2.75063 0
M  V30 57 C 5.86151 0.250068 0.231609 0
M  V30 58 H 12.4469 1.97371 -2.32851 0
M  V30 59 H 13.4271 1.21547 -1.04291 0
M  V30 60 H 13.3014 3.04595 -1.15024 0
M  V30 61 H 11.6424 2.50271 0.562613 0
M  V30 62 H 10.72 2.48757 -0.968998 0
M  V30 63 H 8.97671 0.786999 0.318484 0
M  V30 64 H 10.8512 0.482003 4.60085 0
M  V30 65 H 11.9512 -0.170132 3.29569 0
M  V30 66 H 11.1536 -2.25217 3.52238 0
M  V30 67 H 9.46134 -1.79018 4.05796 0
M  V30 68 H 10.9144 -1.71407 5.17683 0
M  V30 69 H 8.12125 -1.46578 1.17554 0
M  V30 70 H 10.7327 -2.48295 1.2292 0
M  V30 71 H 9.21519 -3.38569 0.977573 0
M  V30 72 H 9.00839 -2.49795 -2.52165 0
M  V30 73 H 10.1063 -1.16077 -2.1538 0
M  V30 74 H 4.93598 -1.77998 -3.30289 0
M  V30 75 H 5.25465 -0.172554 -4.03019 0
M  V30 76 H 3.05015 0.539564 -2.29989 0
M  V30 77 H 1.72901 2.05072 -1.85344 0
M  V30 78 H 0.63639 2.42174 -0.495151 0
M  V30 79 H 1.4459 -0.50959 -1.09804 0
M  V30 80 H 0.20803 0.143585 -0.0435648 0
M  V30 81 H 0.0918084 0.45882 -3.07274 0
M  V30 82 H -1.13147 0.966639 -1.90857 0
M  V30 83 H 0.0401727 -1.82715 -2.40932 0
M  V30 84 H -1.54774 -1.23667 -2.97995 0
M  V30 85 H -0.657868 -1.59644 -0.0658299 0
M  V30 86 H -1.5809 -2.77227 -0.980935 0
M  V30 87 H -2.67924 1.55816 -0.167007 0
M  V30 88 H -4.7875 3.76288 -0.332883 0
M  V30 89 H -4.38647 3.58183 1.39323 0
M  V30 90 H -6.84071 -0.826063 0.613369 0
M  V30 91 H -5.7093 -4.15445 0.417477 0
M  V30 92 H -6.6003 -2.76747 1.07694 0
M  V30 93 H -6.67482 -3.15598 -0.729106 0
M  V30 94 H -10.1241 2.76852 1.05401 0
M  V30 95 H -8.84752 3.42053 2.1483 0
M  V30 96 H -10.6178 -0.301269 2.65611 0
M  V30 97 H -8.85955 -0.134171 3.14716 0
M  V30 98 H -8.8706 -0.565905 0.839411 0
M  V30 99 H -11.2712 1.20665 1.03863 0
M  V30 100 H -10.523 -0.747024 -2.54955 0
M  V30 101 H -10.0486 0.693729 -3.50615 0
M  V30 102 H -7.75607 0.65419 -2.55323 0
M  V30 103 H -8.20329 -0.891332 -3.32284 0
M  V30 104 H -8.308 -0.777883 -1.51753 0
M  V30 105 H -13.2261 -2.0545 -0.801225 0
M  V30 106 H -12.7114 -0.524689 -1.61078 0
M  V30 107 H -14.6436 0.281309 -0.638019 0
M  V30 108 H -13.6058 0.5198 0.841355 0
M  V30 109 H -14.6138 -0.94148 0.676771 0
M  V30 110 H 6.55434 1.76455 2.19236 0
M  V30 111 H 5.53546 1.83171 3.71091 0
M  V30 112 H 5.95018 0.245665 2.90825 0
M  V30 113 H 6.68052 0.186764 0.966408 0
M  V30 END ATOM
M  V30 BEGIN BOND
M  V30 1 1 1 2
M  V30 2 1 2 3
M  V30 3 1 3 4
M  V30 4 1 4 5
M  V30 5 1 5 6
M  V30 6 1 6 7
M  V30 7 1 4 8
M  V30 8 1 8 9
M  V30 9 1 9 10
M  V30 10 1 10 11
M  V30 11 1 10 12
M  V30 12 1 10 13
M  V30 13 1 13 14
M  V30 14 1 14 15
M  V30 15 2 15 16
M  V30 16 1 15 17
M  V30 17 2 17 18
M  V30 18 1 18 19
M  V30 19 1 18 20
M  V30 20 2 20 21
M  V30 21 1 21 22
M  V30 22 1 22 23
M  V30 23 1 23 24
M  V30 24 1 24 25
M  V30 25 1 25 26
M  V30 26 1 26 27
M  V30 27 1 27 28
M  V30 28 1 28 29
M  V30 29 2 29 30
M  V30 30 1 30 31
M  V30 31 1 31 32
M  V30 32 2 31 33
M  V30 33 1 33 34
M  V30 34 2 34 35
M  V30 35 1 35 36
M  V30 36 1 36 37
M  V30 37 1 33 38
M  V30 38 2 38 39
M  V30 39 1 38 40
M  V30 40 1 40 41
M  V30 41 1 41 42
M  V30 42 1 42 43
M  V30 43 1 42 44
M  V30 44 1 42 45
M  V30 45 1 45 46
M  V30 46 1 46 47
M  V30 47 1 47 48
M  V30 48 1 48 49
M  V30 49 1 49 50
M  V30 50 1 47 51
M  V30 51 1 51 52
M  V30 52 1 52 53
M  V30 53 1 21 54
M  V30 54 1 54 55
M  V30 55 1 55 56
M  V30 56 2 54 57
M  V30 57 1 14 8
M  V30 58 1 57 17
M  V30 59 1 35 29
M  V30 60 1 46 40
M  V30 61 1 1 58
M  V30 62 1 1 59
M  V30 63 1 1 60
M  V30 64 1 2 61
M  V30 65 1 2 62
M  V30 66 1 4 63
M  V30 67 1 6 64
M  V30 68 1 6 65
M  V30 69 1 7 66
M  V30 70 1 7 67
M  V30 71 1 7 68
M  V30 72 1 8 69 CFG=1
M  V30 73 1 9 70
M  V30 74 1 9 71
M  V30 75 1 13 72
M  V30 76 1 13 73
M  V30 77 1 19 74
M  V30 78 1 19 75
M  V30 79 1 20 76
M  V30 80 1 23 77
M  V30 81 1 23 78
M  V30 82 1 24 79
M  V30 83 1 24 80
M  V30 84 1 25 81
M  V30 85 1 25 82
M  V30 86 1 26 83
M  V30 87 1 26 84
M  V30 88 1 27 85
M  V30 89 1 27 86
M  V30 90 1 30 87
M  V30 91 1 32 88
M  V30 92 1 32 89
M  V30 93 1 34 90
M  V30 94 1 37 91
M  V30 95 1 37 92
M  V30 96 1 37 93
M  V30 97 1 41 94
M  V30 98 1 41 95
M  V30 99 1 45 96
M  V30 100 1 45 97
M  V30 101 1 46 98 CFG=3
M  V30 102 1 47 99
M  V30 103 1 49 100
M  V30 104 1 49 101
M  V30 105 1 50 102
M  V30 106 1 50 103
M  V30 107 1 50 104
M  V30 108 1 52 105
M  V30 109 1 52 106
M  V30 110 1 53 107
M  V30 111 1 53 108
M  V30 112 1 53 109
M  V30 113 1 56 110
M  V30 114 1 56 111
M  V30 115 1 56 112
M  V30 116 1 57 113
M  V30 END BOND
M  V30 END CTAB
M  END
