
     RDKit          3D

  0  0  0  0  0  0  0  0  0  0999 V3000
M  V30 BEGIN CTAB
M  V30 COUNTS 90 92 0 0 0
M  V30 BEGIN ATOM
M  V30 1 N -7.04356 -0.418368 2.44382 0
M  V30 2 C -5.69084 -0.801681 2.70126 0
M  V30 3 N -4.97991 -0.112556 3.50964 0
M  V30 4 N -5.12743 -1.93699 2.07301 0
M  V30 5 C -3.70763 -2.06625 1.89352 0
M  V30 6 C -3.27012 -1.00729 0.873542 0
M  V30 7 C -4.04773 -1.31485 -0.383931 0
M  V30 8 C -3.64236 -0.292548 -1.44057 0 CFG=1
M  V30 9 C -3.97151 1.03175 -0.890275 0
M  V30 10 O -3.05924 1.85117 -0.740627 0
M  V30 11 N -5.30564 1.31253 -0.556335 0
M  V30 12 C -5.85749 2.48243 -0.017248 0
M  V30 13 C -7.24305 2.65939 0.0207154 0
M  V30 14 C -7.83902 3.77096 0.55003 0
M  V30 15 C -7.06154 4.79127 1.08342 0
M  V30 16 C -5.69466 4.63682 1.05572 0
M  V30 17 C -5.10825 3.48874 0.508102 0
M  V30 18 N -7.63846 5.95589 1.64247 0 CHG=1
M  V30 19 O -8.86475 6.07825 1.66799 0
M  V30 20 O -6.83988 6.93212 2.15043 0 CHG=-1
M  V30 21 N -2.24804 -0.47581 -1.75182 0
M  V30 22 C -1.86773 -0.937333 -3.02437 0
M  V30 23 O -2.81374 -1.16457 -3.84661 0
M  V30 24 C -0.520371 -1.15187 -3.43791 0 CFG=2
M  V30 25 C -0.309109 -1.95941 -4.71551 0
M  V30 26 C 1.23398 -1.93542 -4.74913 0
M  V30 27 C 1.68661 -1.56982 -3.34456 0
M  V30 28 N 0.422468 -1.83634 -2.58131 0
M  V30 29 C 0.256533 -2.62704 -1.46741 0
M  V30 30 O -0.908499 -2.96765 -1.08407 0
M  V30 31 C 1.35689 -3.15146 -0.628831 0 CFG=1
M  V30 32 C 1.28205 -2.71285 0.781623 0
M  V30 33 C 1.36534 -1.31308 1.15249 0
M  V30 34 C 2.59718 -0.520863 1.03403 0
M  V30 35 C 3.27019 -0.296654 -0.237332 0
M  V30 36 N 4.47068 0.516451 -0.104198 0
M  V30 37 C 5.56286 0.052322 0.660787 0
M  V30 38 O 5.56316 -1.05986 1.25336 0
M  V30 39 O 6.74571 0.792777 0.824482 0
M  V30 40 C 7.81133 0.252404 1.62116 0
M  V30 41 C 8.94598 1.17591 1.63659 0
M  V30 42 C 9.05743 2.24537 2.49852 0
M  V30 43 C 10.1758 3.0766 2.47782 0
M  V30 44 C 11.2182 2.85456 1.58519 0
M  V30 45 C 11.1177 1.7921 0.721423 0
M  V30 46 C 10.0078 0.979001 0.752338 0
M  V30 47 N 1.0068 -4.63567 -0.551397 0
M  V30 48 H -7.56964 -0.930082 1.71833 0
M  V30 49 H -7.45655 0.343816 2.97746 0
M  V30 50 H -3.99434 -0.336732 3.73912 0
M  V30 51 H -5.78002 -2.69468 1.73457 0
M  V30 52 H -3.47417 -3.06043 1.45082 0
M  V30 53 H -3.16425 -1.9455 2.83042 0
M  V30 54 H -2.19219 -1.07161 0.73453 0
M  V30 55 H -3.51537 0.0147207 1.23897 0
M  V30 56 H -3.74607 -2.29762 -0.783984 0
M  V30 57 H -5.12999 -1.24283 -0.231823 0
M  V30 58 H -4.28188 -0.444435 -2.35606 0
M  V30 59 H -6.03003 0.533447 -0.726971 0
M  V30 60 H -7.92508 1.90355 -0.378564 0
M  V30 61 H -8.91105 3.91296 0.581393 0
M  V30 62 H -5.04159 5.41287 1.46327 0
M  V30 63 H -4.02618 3.48245 0.552239 0
M  V30 64 H -1.53174 -0.249797 -1.04289 0
M  V30 65 H 0.0102401 -0.158885 -3.67009 0
M  V30 66 H -0.6968 -2.97677 -4.65614 0
M  V30 67 H -0.72011 -1.40502 -5.55763 0
M  V30 68 H 1.51168 -1.10992 -5.45638 0
M  V30 69 H 1.6612 -2.85855 -5.1314 0
M  V30 70 H 2.48914 -2.19957 -2.97515 0
M  V30 71 H 1.8351 -0.487828 -3.27445 0
M  V30 72 H 2.29216 -3.06586 -1.16626 0
M  V30 73 H 0.329099 -3.20416 1.21346 0
M  V30 74 H 2.07146 -3.32131 1.3715 0
M  V30 75 H 1.07829 -1.25595 2.26956 0
M  V30 76 H 0.471075 -0.770489 0.691798 0
M  V30 77 H 2.32992 0.500337 1.51375 0
M  V30 78 H 3.31087 -0.924543 1.82921 0
M  V30 79 H 2.58183 0.280015 -0.924071 0
M  V30 80 H 3.50705 -1.21438 -0.822789 0
M  V30 81 H 4.53404 1.45755 -0.575192 0
M  V30 82 H 7.366 0.232865 2.66434 0
M  V30 83 H 8.04025 -0.771085 1.30301 0
M  V30 84 H 8.23024 2.40448 3.19312 0
M  V30 85 H 10.2239 3.90105 3.16658 0
M  V30 86 H 12.0882 3.50214 1.5717 0
M  V30 87 H 11.9362 1.60817 0.0122217 0
M  V30 88 H 9.91836 0.124817 0.0628543 0
M  V30 89 H 1.38322 -5.07703 -1.4228 0
M  V30 90 H 1.49345 -5.00272 0.302926 0
M  V30 END ATOM
M  V30 BEGIN BOND
M  V30 1 1 1 2
M  V30 2 2 2 3 CFG=2
M  V30 3 1 2 4
M  V30 4 1 4 5
M  V30 5 1 5 6
M  V30 6 1 6 7
M  V30 7 1 7 8
M  V30 8 1 8 9
M  V30 9 2 9 10
M  V30 10 1 9 11
M  V30 11 1 11 12
M  V30 12 2 12 13
M  V30 13 1 13 14
M  V30 14 2 14 15
M  V30 15 1 15 16
M  V30 16 2 16 17
M  V30 17 1 15 18
M  V30 18 2 18 19
M  V30 19 1 18 20
M  V30 20 1 8 21
M  V30 21 1 21 22
M  V30 22 2 22 23
M  V30 23 1 22 24
M  V30 24 1 24 25
M  V30 25 1 25 26
M  V30 26 1 26 27
M  V30 27 1 27 28
M  V30 28 1 28 29
M  V30 29 2 29 30
M  V30 30 1 29 31
M  V30 31 1 31 32
M  V30 32 1 32 33
M  V30 33 1 33 34
M  V30 34 1 34 35
M  V30 35 1 35 36
M  V30 36 1 36 37
M  V30 37 2 37 38
M  V30 38 1 37 39
M  V30 39 1 39 40
M  V30 40 1 40 41
M  V30 41 2 41 42
M  V30 42 1 42 43
M  V30 43 2 43 44
M  V30 44 1 44 45
M  V30 45 2 45 46
M  V30 46 1 31 47
M  V30 47 1 17 12
M  V30 48 1 28 24
M  V30 49 1 46 41
M  V30 50 1 1 48
M  V30 51 1 1 49
M  V30 52 1 3 50
M  V30 53 1 4 51
M  V30 54 1 5 52
M  V30 55 1 5 53
M  V30 56 1 6 54
M  V30 57 1 6 55
M  V30 58 1 7 56
M  V30 59 1 7 57
M  V30 60 1 8 58 CFG=3
M  V30 61 1 11 59
M  V30 62 1 13 60
M  V30 63 1 14 61
M  V30 64 1 16 62
M  V30 65 1 17 63
M  V30 66 1 21 64
M  V30 67 1 24 65 CFG=3
M  V30 68 1 25 66
M  V30 69 1 25 67
M  V30 70 1 26 68
M  V30 71 1 26 69
M  V30 72 1 27 70
M  V30 73 1 27 71
M  V30 74 1 31 72 CFG=3
M  V30 75 1 32 73
M  V30 76 1 32 74
M  V30 77 1 33 75
M  V30 78 1 33 76
M  V30 79 1 34 77
M  V30 80 1 34 78
M  V30 81 1 35 79
M  V30 82 1 35 80
M  V30 83 1 36 81
M  V30 84 1 40 82
M  V30 85 1 40 83
M  V30 86 1 42 84
M  V30 87 1 43 85
M  V30 88 1 44 86
M  V30 89 1 45 87
M  V30 90 1 46 88
M  V30 91 1 47 89
M  V30 92 1 47 90
M  V30 END BOND
M  V30 END CTAB
M  END
