
     RDKit          3D

  0  0  0  0  0  0  0  0  0  0999 V3000
M  V30 BEGIN CTAB
M  V30 COUNTS 46 48 0 0 0
M  V30 BEGIN ATOM
M  V30 1 O 0.135696 -1.11085 -1.84796 0
M  V30 2 C 0.339845 -0.543028 -0.75035 0
M  V30 3 N -0.742709 -0.384792 0.146209 0
M  V30 4 C -2.04044 -0.864272 -0.197124 0
M  V30 5 C -2.52065 -1.95211 0.754798 0
M  V30 6 C -3.86025 -2.46696 0.366661 0
M  V30 7 C -4.56434 -1.66411 -0.702819 0
M  V30 8 C -4.37422 -0.217818 -0.423613 0
M  V30 9 C -3.08272 0.188395 -0.166369 0
M  V30 10 C -2.84843 1.51916 0.0981507 0
M  V30 11 C -3.91768 2.42295 0.100137 0
M  V30 12 C -5.21152 2.03277 -0.154621 0
M  V30 13 C -5.42701 0.679733 -0.420312 0
M  V30 14 N -6.29576 2.95942 -0.150827 0
M  V30 15 C 1.68861 -0.0528487 -0.410619 0
M  V30 16 C 2.68792 -0.330173 -1.51629 0
M  V30 17 N 3.98968 0.174966 -1.12025 0
M  V30 18 N 4.50624 1.37621 -1.32644 0
M  V30 19 C 5.74105 1.47242 -0.811908 0
M  V30 20 C 6.04685 0.257274 -0.234738 0
M  V30 21 C 4.9392 -0.532954 -0.440767 0
M  V30 22 S 7.5474 -0.123844 0.571259 0
M  V30 23 O 8.65355 0.71385 0.0148438 0
M  V30 24 O 7.88106 -1.56248 0.421081 0
M  V30 25 N 7.37716 0.274614 2.2439 0
M  V30 26 H -0.622407 0.0902936 1.09065 0
M  V30 27 H -2.019 -1.33838 -1.21561 0
M  V30 28 H -2.59796 -1.4473 1.76104 0
M  V30 29 H -1.75775 -2.74458 0.894966 0
M  V30 30 H -3.80429 -3.54899 0.0465942 0
M  V30 31 H -4.53217 -2.49909 1.27421 0
M  V30 32 H -5.64708 -1.92191 -0.684861 0
M  V30 33 H -4.18794 -1.94527 -1.70659 0
M  V30 34 H -1.83774 1.84586 0.300954 0
M  V30 35 H -3.74817 3.47771 0.307474 0
M  V30 36 H -6.42602 0.347029 -0.62247 0
M  V30 37 H -6.12218 3.97339 -0.311327 0
M  V30 38 H -7.24559 2.56469 0.0184829 0
M  V30 39 H 1.6805 1.00544 -0.154042 0
M  V30 40 H 2.07034 -0.60359 0.492532 0
M  V30 41 H 2.38508 0.241242 -2.42795 0
M  V30 42 H 2.79116 -1.3904 -1.74044 0
M  V30 43 H 6.39022 2.35451 -0.843238 0
M  V30 44 H 4.84438 -1.55801 -0.110828 0
M  V30 45 H 6.72819 -0.396809 2.68619 0
M  V30 46 H 7.00994 1.22865 2.38598 0
M  V30 END ATOM
M  V30 BEGIN BOND
M  V30 1 2 1 2
M  V30 2 1 2 3
M  V30 3 1 3 4
M  V30 4 1 4 5
M  V30 5 1 5 6
M  V30 6 1 6 7
M  V30 7 1 7 8
M  V30 8 2 8 9
M  V30 9 1 9 10
M  V30 10 2 10 11
M  V30 11 1 11 12
M  V30 12 2 12 13
M  V30 13 1 12 14
M  V30 14 1 2 15
M  V30 15 1 15 16
M  V30 16 1 16 17
M  V30 17 1 17 18
M  V30 18 2 18 19
M  V30 19 1 19 20
M  V30 20 2 20 21
M  V30 21 1 20 22
M  V30 22 2 22 23
M  V30 23 2 22 24
M  V30 24 1 22 25
M  V30 25 1 9 4
M  V30 26 1 21 17
M  V30 27 1 13 8
M  V30 28 1 3 26
M  V30 29 1 4 27
M  V30 30 1 5 28
M  V30 31 1 5 29
M  V30 32 1 6 30
M  V30 33 1 6 31
M  V30 34 1 7 32
M  V30 35 1 7 33
M  V30 36 1 10 34
M  V30 37 1 11 35
M  V30 38 1 13 36
M  V30 39 1 14 37
M  V30 40 1 14 38
M  V30 41 1 15 39
M  V30 42 1 15 40
M  V30 43 1 16 41
M  V30 44 1 16 42
M  V30 45 1 19 43
M  V30 46 1 21 44
M  V30 47 1 25 45
M  V30 48 1 25 46
M  V30 END BOND
M  V30 END CTAB
M  END
