
     RDKit          3D

  0  0  0  0  0  0  0  0  0  0999 V3000
M  V30 BEGIN CTAB
M  V30 COUNTS 28 28 0 0 0
M  V30 BEGIN ATOM
M  V30 1 N 2.93462 -1.74128 -0.435183 0
M  V30 2 S 1.88891 -1.07841 0.729554 0
M  V30 3 O 2.67499 -0.166451 1.62605 0
M  V30 4 O 1.37204 -2.23321 1.5615 0
M  V30 5 N 0.603599 -0.248451 -0.0238585 0
M  V30 6 C -0.217872 -1.03897 -0.833528 0
M  V30 7 C -1.26553 -1.84955 -0.151363 0
M  V30 8 C -2.47706 -0.947971 0.108921 0
M  V30 9 O -2.10243 -0.148092 1.18998 0
M  V30 10 C -1.39973 0.956 0.773645 0
M  V30 11 C 0.0774968 0.791593 0.73492 0 CFG=2
M  V30 12 S 0.765288 2.33948 0.126203 0
M  V30 13 O 2.27516 2.2972 0.170294 0
M  V30 14 O 0.33969 3.48252 0.99914 0
M  V30 15 N 0.309924 2.62858 -1.49807 0
M  V30 16 H 3.83077 -1.95455 -0.113628 0
M  V30 17 H 2.53859 -2.0256 -1.26643 0
M  V30 18 H -0.695221 -0.410751 -1.62524 0
M  V30 19 H 0.428695 -1.76078 -1.4008 0
M  V30 20 H -0.97342 -2.27318 0.809241 0
M  V30 21 H -1.61702 -2.6354 -0.853424 0
M  V30 22 H -2.72183 -0.321011 -0.748293 0
M  V30 23 H -3.36136 -1.52293 0.387337 0
M  V30 24 H -1.74315 1.37418 -0.192848 0
M  V30 25 H -1.61782 1.76165 1.53503 0
M  V30 26 H 0.43387 0.701565 1.79564 0
M  V30 27 H -0.67244 2.37 -1.70965 0
M  V30 28 H 0.39122 3.65382 -1.69513 0
M  V30 END ATOM
M  V30 BEGIN BOND
M  V30 1 1 1 2
M  V30 2 2 2 3
M  V30 3 2 2 4
M  V30 4 1 2 5
M  V30 5 1 5 6
M  V30 6 1 6 7
M  V30 7 1 7 8
M  V30 8 1 8 9
M  V30 9 1 9 10
M  V30 10 1 10 11
M  V30 11 1 11 12
M  V30 12 2 12 13
M  V30 13 2 12 14
M  V30 14 1 12 15
M  V30 15 1 11 5
M  V30 16 1 1 16
M  V30 17 1 1 17
M  V30 18 1 6 18
M  V30 19 1 6 19
M  V30 20 1 7 20
M  V30 21 1 7 21
M  V30 22 1 8 22
M  V30 23 1 8 23
M  V30 24 1 10 24
M  V30 25 1 10 25
M  V30 26 1 11 26 CFG=1
M  V30 27 1 15 27
M  V30 28 1 15 28
M  V30 END BOND
M  V30 END CTAB
M  END
