
     RDKit          3D

  0  0  0  0  0  0  0  0  0  0999 V3000
M  V30 BEGIN CTAB
M  V30 COUNTS 36 37 0 0 0
M  V30 BEGIN ATOM
M  V30 1 C -1.12217 0.901041 -1.94885 0
M  V30 2 C -1.33506 0.69305 -0.442196 0
M  V30 3 C -2.76032 0.594797 -0.0859463 0
M  V30 4 C -3.30715 1.97083 0.327843 0
M  V30 5 C -3.16036 -0.405425 0.916595 0
M  V30 6 C -2.13364 -1.38965 1.33519 0
M  V30 7 C -1.10697 -1.67129 0.227088 0
M  V30 8 N -0.500507 -0.418431 -0.0588327 0
M  V30 9 C 0.899893 -0.203738 0.0163222 0
M  V30 10 C 1.82496 -1.17506 0.332312 0
M  V30 11 C 3.1936 -0.901466 0.392801 0
M  V30 12 N 4.12211 -1.90842 0.717278 0
M  V30 13 C 3.62616 0.39001 0.125192 0
M  V30 14 C 2.68481 1.36208 -0.19251 0
M  V30 15 N 1.39182 1.04599 -0.235977 0
M  V30 16 N 4.99037 0.74903 0.165206 0
M  V30 17 H -2.03484 1.47972 -2.27499 0
M  V30 18 H -0.268705 1.555 -2.15881 0
M  V30 19 H -1.14687 -0.0336632 -2.50547 0
M  V30 20 H -0.897709 1.59398 0.0374116 0
M  V30 21 H -3.32533 0.361618 -1.03939 0
M  V30 22 H -2.71973 2.74235 -0.212961 0
M  V30 23 H -3.08385 2.08456 1.40717 0
M  V30 24 H -4.38625 2.03957 0.176127 0
M  V30 25 H -3.51962 0.111413 1.85781 0
M  V30 26 H -4.07344 -0.990887 0.594251 0
M  V30 27 H -2.59112 -2.37059 1.57664 0
M  V30 28 H -1.59327 -1.05657 2.26028 0
M  V30 29 H -1.72593 -1.98183 -0.648436 0
M  V30 30 H -0.462682 -2.4618 0.593489 0
M  V30 31 H 1.49012 -2.17568 0.538661 0
M  V30 32 H 5.03453 -1.69768 1.17984 0
M  V30 33 H 3.95999 -2.93851 0.516019 0
M  V30 34 H 3.06775 2.35707 -0.394297 0
M  V30 35 H 5.26306 1.72752 0.330941 0
M  V30 36 H 5.70636 0.0210514 0.0268413 0
M  V30 END ATOM
M  V30 BEGIN BOND
M  V30 1 1 1 2
M  V30 2 1 2 3
M  V30 3 1 3 4
M  V30 4 1 3 5
M  V30 5 1 5 6
M  V30 6 1 6 7
M  V30 7 1 7 8
M  V30 8 1 8 9
M  V30 9 2 9 10
M  V30 10 1 10 11
M  V30 11 1 11 12
M  V30 12 2 11 13
M  V30 13 1 13 14
M  V30 14 2 14 15
M  V30 15 1 13 16
M  V30 16 1 8 2
M  V30 17 1 15 9
M  V30 18 1 1 17
M  V30 19 1 1 18
M  V30 20 1 1 19
M  V30 21 1 2 20
M  V30 22 1 3 21
M  V30 23 1 4 22
M  V30 24 1 4 23
M  V30 25 1 4 24
M  V30 26 1 5 25
M  V30 27 1 5 26
M  V30 28 1 6 27
M  V30 29 1 6 28
M  V30 30 1 7 29
M  V30 31 1 7 30
M  V30 32 1 10 31
M  V30 33 1 12 32
M  V30 34 1 12 33
M  V30 35 1 14 34
M  V30 36 1 16 35
M  V30 37 1 16 36
M  V30 END BOND
M  V30 END CTAB
M  END
