
     RDKit          3D

  0  0  0  0  0  0  0  0  0  0999 V3000
M  V30 BEGIN CTAB
M  V30 COUNTS 22 22 0 0 0
M  V30 BEGIN ATOM
M  V30 1 N 3.03915 -1.43217 0.263409 0
M  V30 2 C 1.77381 -0.748136 0.134847 0
M  V30 3 C 1.70461 0.582337 -0.176543 0
M  V30 4 C 0.480531 1.19417 -0.2895 0
M  V30 5 N 0.349795 2.57073 -0.608353 0
M  V30 6 C -0.739973 0.488784 -0.0925411 0
M  V30 7 C -0.680559 -0.838937 0.219213 0
M  V30 8 C 0.597293 -1.42661 0.324763 0
M  V30 9 C -1.7976 -1.68537 0.471528 0
M  V30 10 F -1.33756 -3.01932 0.664024 0
M  V30 11 F -2.58621 -1.78792 -0.654309 0
M  V30 12 F -2.62375 -1.50953 1.52547 0
M  V30 13 C -1.98281 1.19089 -0.275326 0
M  V30 14 F -2.17872 1.66198 -1.57856 0
M  V30 15 F -3.11117 0.853664 0.34959 0
M  V30 16 F -1.73056 2.4742 0.350601 0
M  V30 17 H 3.03509 -2.45528 0.277305 0
M  V30 18 H 3.89313 -0.868798 0.335853 0
M  V30 19 H 2.60916 1.13686 -0.329997 0
M  V30 20 H 0.58675 3.29403 0.0649979 0
M  V30 21 H 0.00716149 2.82004 -1.5511 0
M  V30 22 H 0.692442 -2.49563 0.574639 0
M  V30 END ATOM
M  V30 BEGIN BOND
M  V30 1 1 1 2
M  V30 2 2 2 3
M  V30 3 1 3 4
M  V30 4 1 4 5
M  V30 5 2 4 6
M  V30 6 1 6 7
M  V30 7 2 7 8
M  V30 8 1 7 9
M  V30 9 1 9 10
M  V30 10 1 9 11
M  V30 11 1 9 12
M  V30 12 1 6 13
M  V30 13 1 13 14
M  V30 14 1 13 15
M  V30 15 1 13 16
M  V30 16 1 8 2
M  V30 17 1 1 17
M  V30 18 1 1 18
M  V30 19 1 3 19
M  V30 20 1 5 20
M  V30 21 1 5 21
M  V30 22 1 8 22
M  V30 END BOND
M  V30 END CTAB
M  END
