
     RDKit          3D

  0  0  0  0  0  0  0  0  0  0999 V3000
M  V30 BEGIN CTAB
M  V30 COUNTS 37 38 0 0 0
M  V30 BEGIN ATOM
M  V30 1 N 0.420413 -2.18723 -1.70169 0
M  V30 2 C -0.701485 -1.73798 -0.927824 0
M  V30 3 C -1.7475 -1.00871 -1.73347 0
M  V30 4 C -2.40186 -0.128789 -0.668183 0
M  V30 5 N -1.26822 0.340728 0.0518921 0
M  V30 6 C -0.291788 -0.694478 0.109393 0
M  V30 7 C 1.07277 -0.174395 -0.152517 0
M  V30 8 C 1.26904 0.699022 -1.19583 0
M  V30 9 C 2.53683 1.21744 -1.47984 0
M  V30 10 C 3.60363 0.841687 -0.695366 0
M  V30 11 C 3.41293 -0.0315742 0.349248 0
M  V30 12 C 2.14086 -0.542876 0.622761 0
M  V30 13 N 4.48696 -0.451444 1.19593 0
M  V30 14 C -1.51447 1.06302 1.24619 0
M  V30 15 C -2.27958 2.33101 0.854431 0
M  V30 16 C -2.32153 0.320449 2.2744 0
M  V30 17 H 0.727003 -3.11955 -1.34241 0
M  V30 18 H 0.28166 -2.1802 -2.72485 0
M  V30 19 H -1.21603 -2.60096 -0.418493 0
M  V30 20 H -1.34138 -0.408957 -2.55708 0
M  V30 21 H -2.53952 -1.69214 -2.10561 0
M  V30 22 H -3.0644 -0.801004 -0.0891889 0
M  V30 23 H -2.9789 0.675867 -1.15755 0
M  V30 24 H -0.296384 -1.16624 1.10825 0
M  V30 25 H 0.454521 1.00789 -1.8238 0
M  V30 26 H 2.7108 1.9027 -2.29219 0
M  V30 27 H 4.61908 1.22393 -0.881724 0
M  V30 28 H 2.04091 -1.23189 1.46156 0
M  V30 29 H 5.44766 -0.481116 0.804452 0
M  V30 30 H 4.3595 -0.730583 2.19005 0
M  V30 31 H -0.544199 1.33402 1.69482 0
M  V30 32 H -1.91563 3.19514 1.44011 0
M  V30 33 H -2.1733 2.53025 -0.244036 0
M  V30 34 H -3.34928 2.20785 1.04358 0
M  V30 35 H -2.35451 -0.761449 2.13143 0
M  V30 36 H -1.91933 0.502172 3.30547 0
M  V30 37 H -3.36527 0.738398 2.30768 0
M  V30 END ATOM
M  V30 BEGIN BOND
M  V30 1 1 1 2
M  V30 2 1 2 3
M  V30 3 1 3 4
M  V30 4 1 4 5
M  V30 5 1 5 6
M  V30 6 1 6 7
M  V30 7 2 7 8
M  V30 8 1 8 9
M  V30 9 2 9 10
M  V30 10 1 10 11
M  V30 11 2 11 12
M  V30 12 1 11 13
M  V30 13 1 5 14
M  V30 14 1 14 15
M  V30 15 1 14 16
M  V30 16 1 6 2
M  V30 17 1 12 7
M  V30 18 1 1 17
M  V30 19 1 1 18
M  V30 20 1 2 19
M  V30 21 1 3 20
M  V30 22 1 3 21
M  V30 23 1 4 22
M  V30 24 1 4 23
M  V30 25 1 6 24
M  V30 26 1 8 25
M  V30 27 1 9 26
M  V30 28 1 10 27
M  V30 29 1 12 28
M  V30 30 1 13 29
M  V30 31 1 13 30
M  V30 32 1 14 31
M  V30 33 1 15 32
M  V30 34 1 15 33
M  V30 35 1 15 34
M  V30 36 1 16 35
M  V30 37 1 16 36
M  V30 38 1 16 37
M  V30 END BOND
M  V30 END CTAB
M  END
