
     RDKit          3D

  0  0  0  0  0  0  0  0  0  0999 V3000
M  V30 BEGIN CTAB
M  V30 COUNTS 26 26 0 0 0
M  V30 BEGIN ATOM
M  V30 1 F 3.8394 1.56247 0.419203 0
M  V30 2 C 4.17453 0.241312 0.450494 0
M  V30 3 C 3.4026 -0.626589 -0.464359 0
M  V30 4 N 2.00248 -0.72516 -0.307534 0
M  V30 5 C 1.00221 0.244528 -0.424381 0
M  V30 6 O 1.33244 1.43323 -0.727963 0
M  V30 7 C -0.421711 -0.0140174 -0.219031 0
M  V30 8 C -0.902641 -1.25419 0.112141 0
M  V30 9 C -2.26435 -1.49873 0.30808 0
M  V30 10 C -3.17148 -0.471304 0.168344 0
M  V30 11 C -2.70211 0.777975 -0.163706 0
M  V30 12 C -1.35582 0.990478 -0.350782 0
M  V30 13 N -0.955563 2.32068 -0.694106 0
M  V30 14 N -4.56056 -0.636084 0.349018 0
M  V30 15 H 4.21607 -0.134914 1.50019 0
M  V30 16 H 5.26229 0.204581 0.129017 0
M  V30 17 H 3.6729 -0.273627 -1.5198 0
M  V30 18 H 3.87149 -1.66105 -0.452729 0
M  V30 19 H 1.64066 -1.71279 -0.0540378 0
M  V30 20 H -0.269717 -2.11631 0.242667 0
M  V30 21 H -2.6464 -2.46985 0.567972 0
M  V30 22 H -3.43061 1.58994 -0.272944 0
M  V30 23 H -0.990205 2.70335 -1.64809 0
M  V30 24 H -0.61147 2.91887 0.0884103 0
M  V30 25 H -5.20044 -0.543184 -0.451995 0
M  V30 26 H -4.93399 -0.849638 1.28421 0
M  V30 END ATOM
M  V30 BEGIN BOND
M  V30 1 1 1 2
M  V30 2 1 2 3
M  V30 3 1 3 4
M  V30 4 1 4 5
M  V30 5 2 5 6
M  V30 6 1 5 7
M  V30 7 2 7 8
M  V30 8 1 8 9
M  V30 9 2 9 10
M  V30 10 1 10 11
M  V30 11 2 11 12
M  V30 12 1 12 13
M  V30 13 1 10 14
M  V30 14 1 12 7
M  V30 15 1 2 15
M  V30 16 1 2 16
M  V30 17 1 3 17
M  V30 18 1 3 18
M  V30 19 1 4 19
M  V30 20 1 8 20
M  V30 21 1 9 21
M  V30 22 1 11 22
M  V30 23 1 13 23
M  V30 24 1 13 24
M  V30 25 1 14 25
M  V30 26 1 14 26
M  V30 END BOND
M  V30 END CTAB
M  END
