
     RDKit          3D

  0  0  0  0  0  0  0  0  0  0999 V3000
M  V30 BEGIN CTAB
M  V30 COUNTS 49 50 0 0 0
M  V30 BEGIN ATOM
M  V30 1 C -2.64974 -3.1609 0.676576 0
M  V30 2 C -3.30959 -2.06299 -0.126056 0
M  V30 3 N -2.89811 -0.74201 0.382531 0
M  V30 4 C -1.75024 -0.170868 -0.19264 0
M  V30 5 O -1.12998 -0.818884 -1.08463 0
M  V30 6 C -1.29147 1.16924 0.256246 0 CFG=2
M  V30 7 C -2.08507 2.19587 -0.541562 0
M  V30 8 C -1.06306 2.88759 -1.4281 0 CFG=1
M  V30 9 C 0.177467 2.76549 -0.586176 0
M  V30 10 N 0.0850889 1.44098 -0.04283 0
M  V30 11 C 1.16791 0.562468 0.183784 0
M  V30 12 O 1.05751 -0.579413 0.696937 0
M  V30 13 C 2.53904 0.988996 -0.199457 0
M  V30 14 N 3.52058 -0.0398659 0.107205 0
M  V30 15 N 4.20977 -0.220626 1.20473 0
M  V30 16 C 5.03159 -1.28074 1.13793 0
M  V30 17 C 4.83882 -1.81415 -0.120146 0
M  V30 18 C 3.89543 -1.03098 -0.74993 0
M  V30 19 N 3.39311 -1.21649 -2.06659 0
M  V30 20 C 5.96471 -1.78618 2.19931 0
M  V30 21 N -0.881874 2.1819 -2.6389 0
M  V30 22 C -3.68926 -0.155045 1.43081 0
M  V30 23 C -4.82042 0.70897 0.96569 0
M  V30 24 H -3.16404 -4.11147 0.474987 0
M  V30 25 H -1.58864 -3.26127 0.358248 0
M  V30 26 H -2.72243 -2.9168 1.75602 0
M  V30 27 H -2.99477 -2.19089 -1.18172 0
M  V30 28 H -4.40544 -2.18329 -0.0948313 0
M  V30 29 H -1.46774 1.30095 1.32107 0
M  V30 30 H -2.5248 2.95271 0.133967 0
M  V30 31 H -2.85273 1.69242 -1.17774 0
M  V30 32 H -1.34061 3.93803 -1.64921 0
M  V30 33 H 1.10558 2.93091 -1.17175 0
M  V30 34 H 0.124933 3.48114 0.285801 0
M  V30 35 H 2.74722 1.92306 0.397266 0
M  V30 36 H 2.56564 1.20715 -1.2846 0
M  V30 37 H 5.33322 -2.68246 -0.535812 0
M  V30 38 H 2.9838 -2.09343 -2.41299 0
M  V30 39 H 3.44074 -0.407511 -2.7339 0
M  V30 40 H 6.98252 -1.45664 1.93724 0
M  V30 41 H 5.68734 -1.33019 3.17104 0
M  V30 42 H 5.86085 -2.87479 2.31976 0
M  V30 43 H -0.0585855 1.61873 -2.75388 0
M  V30 44 H -1.45677 2.41728 -3.42873 0
M  V30 45 H -3.05894 0.453049 2.10776 0
M  V30 46 H -4.10277 -0.961179 2.10823 0
M  V30 47 H -5.7456 0.386294 1.47959 0
M  V30 48 H -4.65294 1.77404 1.2289 0
M  V30 49 H -5.00728 0.571797 -0.119432 0
M  V30 END ATOM
M  V30 BEGIN BOND
M  V30 1 1 1 2
M  V30 2 1 2 3
M  V30 3 1 3 4
M  V30 4 2 4 5
M  V30 5 1 4 6
M  V30 6 1 6 7
M  V30 7 1 7 8
M  V30 8 1 8 9
M  V30 9 1 9 10
M  V30 10 1 10 11
M  V30 11 2 11 12
M  V30 12 1 11 13
M  V30 13 1 13 14
M  V30 14 1 14 15
M  V30 15 2 15 16
M  V30 16 1 16 17
M  V30 17 2 17 18
M  V30 18 1 18 19
M  V30 19 1 16 20
M  V30 20 1 8 21
M  V30 21 1 3 22
M  V30 22 1 22 23
M  V30 23 1 10 6
M  V30 24 1 18 14
M  V30 25 1 1 24
M  V30 26 1 1 25
M  V30 27 1 1 26
M  V30 28 1 2 27
M  V30 29 1 2 28
M  V30 30 1 6 29 CFG=1
M  V30 31 1 7 30
M  V30 32 1 7 31
M  V30 33 1 8 32 CFG=3
M  V30 34 1 9 33
M  V30 35 1 9 34
M  V30 36 1 13 35
M  V30 37 1 13 36
M  V30 38 1 17 37
M  V30 39 1 19 38
M  V30 40 1 19 39
M  V30 41 1 20 40
M  V30 42 1 20 41
M  V30 43 1 20 42
M  V30 44 1 21 43
M  V30 45 1 21 44
M  V30 46 1 22 45
M  V30 47 1 22 46
M  V30 48 1 23 47
M  V30 49 1 23 48
M  V30 50 1 23 49
M  V30 END BOND
M  V30 END CTAB
M  END
