
     RDKit          3D

  0  0  0  0  0  0  0  0  0  0999 V3000
M  V30 BEGIN CTAB
M  V30 COUNTS 59 62 0 0 0
M  V30 BEGIN ATOM
M  V30 1 C -5.20398 -1.65228 1.30279 0
M  V30 2 C -4.8311 -1.19267 -0.100851 0
M  V30 3 C -3.34638 -1.17631 -0.167517 0
M  V30 4 C -2.55385 -2.25477 -0.294783 0
M  V30 5 C -2.94978 -3.67315 -0.403831 0
M  V30 6 N -1.25981 -1.81365 -0.308033 0
M  V30 7 C -1.25496 -0.46322 -0.187598 0
M  V30 8 C -2.56459 -0.0119201 -0.0962831 0
M  V30 9 C -3.08325 1.3439 0.0256211 0
M  V30 10 C 0.035296 0.25566 -0.180721 0
M  V30 11 C 1.20317 -0.366168 -0.289908 0
M  V30 12 C 2.59545 0.110219 -0.308708 0
M  V30 13 C 3.14945 1.45283 -0.168729 0
M  V30 14 C 3.33988 -0.987261 -0.465348 0
M  V30 15 C 4.85133 -1.055 -0.551407 0
M  V30 16 C 5.42417 -1.87121 0.56137 0
M  V30 17 C 2.49212 -2.15915 -0.546668 0
M  V30 18 C 2.97148 -3.55785 -0.722733 0
M  V30 19 N 1.25537 -1.77916 -0.442218 0 CHG=1
M  V30 20 B 0.00664695 -2.64984 -0.45104 0 CHG=-1
M  V30 21 F 0.00249626 -3.62008 0.630267 0
M  V30 22 F 0.00683524 -3.4034 -1.6983 0
M  V30 23 C 0.0391046 1.70478 -0.0995388 0
M  V30 24 C -0.236797 2.40734 1.08307 0
M  V30 25 C -0.26668 3.77607 1.10851 0
M  V30 26 N -0.541562 4.53114 2.27549 0
M  V30 27 C -0.0160043 4.46646 -0.0719543 0
M  V30 28 N -0.0403413 5.88181 -0.0735828 0
M  V30 29 C 0.255354 3.79115 -1.23621 0
M  V30 30 C 0.288239 2.43573 -1.27579 0
M  V30 31 H -4.74847 -2.6453 1.48595 0
M  V30 32 H -4.77164 -0.937803 2.01699 0
M  V30 33 H -6.3125 -1.66788 1.44864 0
M  V30 34 H -5.16369 -2.03623 -0.770914 0
M  V30 35 H -5.32951 -0.282759 -0.39231 0
M  V30 36 H -2.46754 -4.14896 -1.28376 0
M  V30 37 H -2.60579 -4.23632 0.485446 0
M  V30 38 H -4.03679 -3.75771 -0.520984 0
M  V30 39 H -3.21109 1.73048 1.05489 0
M  V30 40 H -4.18648 1.29905 -0.302624 0
M  V30 41 H -2.70661 2.08305 -0.710778 0
M  V30 42 H 4.22058 1.33201 0.223621 0
M  V30 43 H 2.70572 2.0555 0.630362 0
M  V30 44 H 3.35199 1.97415 -1.12043 0
M  V30 45 H 5.29848 -0.0574589 -0.582254 0
M  V30 46 H 5.03633 -1.51603 -1.55098 0
M  V30 47 H 6.10856 -1.35187 1.22887 0
M  V30 48 H 5.99488 -2.72005 0.104275 0
M  V30 49 H 4.61761 -2.32655 1.204 0
M  V30 50 H 2.87761 -4.17745 0.175451 0
M  V30 51 H 4.04187 -3.58018 -1.03751 0
M  V30 52 H 2.40627 -4.03188 -1.54886 0
M  V30 53 H -0.429321 1.85588 1.98845 0
M  V30 54 H 0.128387 4.64921 3.06459 0
M  V30 55 H -1.47166 5.0017 2.3563 0
M  V30 56 H -0.843755 6.42801 -0.446814 0
M  V30 57 H 0.773908 6.40425 0.311797 0
M  V30 58 H 0.453906 4.32496 -2.16956 0
M  V30 59 H 0.501462 1.8662 -2.18723 0
M  V30 END ATOM
M  V30 BEGIN BOND
M  V30 1 1 1 2
M  V30 2 1 2 3
M  V30 3 2 3 4
M  V30 4 1 4 5
M  V30 5 1 4 6
M  V30 6 1 6 7
M  V30 7 2 7 8
M  V30 8 1 8 9
M  V30 9 1 7 10
M  V30 10 2 10 11
M  V30 11 1 11 12
M  V30 12 1 12 13
M  V30 13 2 12 14
M  V30 14 1 14 15
M  V30 15 1 15 16
M  V30 16 1 14 17
M  V30 17 1 17 18
M  V30 18 2 17 19
M  V30 19 1 19 20
M  V30 20 1 20 21
M  V30 21 1 20 22
M  V30 22 1 10 23
M  V30 23 2 23 24
M  V30 24 1 24 25
M  V30 25 1 25 26
M  V30 26 2 25 27
M  V30 27 1 27 28
M  V30 28 1 27 29
M  V30 29 2 29 30
M  V30 30 1 8 3
M  V30 31 1 19 11
M  V30 32 1 30 23
M  V30 33 1 20 6
M  V30 34 1 1 31
M  V30 35 1 1 32
M  V30 36 1 1 33
M  V30 37 1 2 34
M  V30 38 1 2 35
M  V30 39 1 5 36
M  V30 40 1 5 37
M  V30 41 1 5 38
M  V30 42 1 9 39
M  V30 43 1 9 40
M  V30 44 1 9 41
M  V30 45 1 13 42
M  V30 46 1 13 43
M  V30 47 1 13 44
M  V30 48 1 15 45
M  V30 49 1 15 46
M  V30 50 1 16 47
M  V30 51 1 16 48
M  V30 52 1 16 49
M  V30 53 1 18 50
M  V30 54 1 18 51
M  V30 55 1 18 52
M  V30 56 1 24 53
M  V30 57 1 26 54
M  V30 58 1 26 55
M  V30 59 1 28 56
M  V30 60 1 28 57
M  V30 61 1 29 58
M  V30 62 1 30 59
M  V30 END BOND
M  V30 END CTAB
M  END
