
     RDKit          3D

  0  0  0  0  0  0  0  0  0  0999 V3000
M  V30 BEGIN CTAB
M  V30 COUNTS 50 53 0 0 0
M  V30 BEGIN ATOM
M  V30 1 N 5.69557 -0.908533 0.181668 0
M  V30 2 C 5.74932 -0.0996118 -0.993643 0 CFG=2
M  V30 3 C 5.35526 1.35816 -0.778693 0
M  V30 4 C 3.98436 1.04356 -1.30564 0 CFG=1
M  V30 5 C 4.57628 -0.23855 -1.91655 0
M  V30 6 C 2.99264 0.775344 -0.221852 0
M  V30 7 C 1.73321 0.265696 -0.448675 0
M  V30 8 C 0.817878 0.0446298 0.539468 0
M  V30 9 N 1.22506 0.367454 1.81021 0
M  V30 10 C 2.44032 0.86498 2.06155 0
M  V30 11 N 3.30885 1.06747 1.07202 0
M  V30 12 N 2.83543 1.20664 3.3835 0
M  V30 13 N -0.49295 -0.492383 0.329809 0
M  V30 14 C -0.953246 -0.765134 -0.962154 0
M  V30 15 C -2.2789 -1.3704 -1.15842 0
M  V30 16 C -3.216 -1.30478 0.0135803 0
M  V30 17 C -2.54432 -1.40069 1.33029 0
M  V30 18 C -1.25971 -0.723288 1.51019 0
M  V30 19 O -4.02418 -2.47358 -0.0870767 0
M  V30 20 C -4.20627 -0.188841 -0.122103 0
M  V30 21 C -5.33121 -0.387579 -0.935351 0
M  V30 22 C -6.30181 0.569161 -1.13209 0
M  V30 23 C -6.13986 1.77509 -0.483793 0
M  V30 24 C -5.02842 1.97872 0.323685 0
M  V30 25 C -4.05869 1.01214 0.512119 0
M  V30 26 F -7.04311 2.77337 -0.607928 0
M  V30 27 H 5.98864 -0.473964 1.03921 0
M  V30 28 H 6.00656 -1.86679 0.0333559 0
M  V30 29 H 6.75872 -0.12752 -1.46793 0
M  V30 30 H 5.95949 2.07703 -1.37541 0
M  V30 31 H 5.30753 1.66126 0.272761 0
M  V30 32 H 3.64378 1.73441 -2.07711 0
M  V30 33 H 3.94378 -1.11562 -1.83037 0
M  V30 34 H 4.91115 -0.0398366 -2.97501 0
M  V30 35 H 1.47041 0.0241779 -1.46517 0
M  V30 36 H 3.55014 0.730094 3.93563 0
M  V30 37 H 2.3232 2.03556 3.81153 0
M  V30 38 H -0.179355 -1.45611 -1.43977 0
M  V30 39 H -0.829616 0.180637 -1.58327 0
M  V30 40 H -2.79932 -0.839017 -2.00052 0
M  V30 41 H -2.1969 -2.42971 -1.54499 0
M  V30 42 H -2.39881 -2.5066 1.55383 0
M  V30 43 H -3.28207 -1.10261 2.11387 0
M  V30 44 H -1.28304 0.23497 2.06958 0
M  V30 45 H -0.615066 -1.38861 2.1737 0
M  V30 46 H -3.40814 -3.24774 -0.136836 0
M  V30 47 H -5.46882 -1.33292 -1.45214 0
M  V30 48 H -7.17334 0.411869 -1.75668 0
M  V30 49 H -4.86459 2.90053 0.857393 0
M  V30 50 H -3.19984 1.18748 1.13493 0
M  V30 END ATOM
M  V30 BEGIN BOND
M  V30 1 1 1 2
M  V30 2 1 2 3
M  V30 3 1 3 4
M  V30 4 1 4 5
M  V30 5 1 4 6
M  V30 6 2 6 7
M  V30 7 1 7 8
M  V30 8 2 8 9
M  V30 9 1 9 10
M  V30 10 2 10 11
M  V30 11 1 10 12
M  V30 12 1 8 13
M  V30 13 1 13 14
M  V30 14 1 14 15
M  V30 15 1 15 16
M  V30 16 1 16 17
M  V30 17 1 17 18
M  V30 18 1 16 19
M  V30 19 1 16 20
M  V30 20 2 20 21
M  V30 21 1 21 22
M  V30 22 2 22 23
M  V30 23 1 23 24
M  V30 24 2 24 25
M  V30 25 1 23 26
M  V30 26 1 5 2
M  V30 27 1 11 6
M  V30 28 1 18 13
M  V30 29 1 25 20
M  V30 30 1 1 27
M  V30 31 1 1 28
M  V30 32 1 2 29 CFG=3
M  V30 33 1 3 30
M  V30 34 1 3 31
M  V30 35 1 4 32 CFG=3
M  V30 36 1 5 33
M  V30 37 1 5 34
M  V30 38 1 7 35
M  V30 39 1 12 36
M  V30 40 1 12 37
M  V30 41 1 14 38
M  V30 42 1 14 39
M  V30 43 1 15 40
M  V30 44 1 15 41
M  V30 45 1 17 42
M  V30 46 1 17 43
M  V30 47 1 18 44
M  V30 48 1 18 45
M  V30 49 1 19 46
M  V30 50 1 21 47
M  V30 51 1 22 48
M  V30 52 1 24 49
M  V30 53 1 25 50
M  V30 END BOND
M  V30 END CTAB
M  END
