
     RDKit          3D

  0  0  0  0  0  0  0  0  0  0999 V3000
M  V30 BEGIN CTAB
M  V30 COUNTS 17 17 0 0 0
M  V30 BEGIN ATOM
M  V30 1 F 3.33203 1.36936 0.98275 0
M  V30 2 C 3.46089 0.159597 0.3309 0
M  V30 3 S 2.37217 0.0823295 -1.09804 0
M  V30 4 C 0.649383 0.0821735 -0.649463 0
M  V30 5 N -0.0688443 1.20406 -0.507247 0
M  V30 6 C -1.38943 1.12133 -0.162232 0
M  V30 7 N -2.17928 2.30159 -0.0031055 0
M  V30 8 N -1.92924 -0.0997958 0.0251853 0
M  V30 9 C -1.2305 -1.23843 -0.111324 0
M  V30 10 N 0.0663556 -1.1091 -0.452135 0
M  V30 11 N -1.81157 -2.52153 0.0884643 0
M  V30 12 F 3.29143 -0.903874 1.18972 0
M  V30 13 H 4.50957 0.080351 -0.0658665 0
M  V30 14 H -3.20517 2.26214 -0.226805 0
M  V30 15 H -1.78241 3.19224 0.323216 0
M  V30 16 H -2.79546 -2.59662 0.427741 0
M  V30 17 H -1.28994 -3.38583 -0.091759 0
M  V30 END ATOM
M  V30 BEGIN BOND
M  V30 1 1 1 2
M  V30 2 1 2 3
M  V30 3 1 3 4
M  V30 4 2 4 5
M  V30 5 1 5 6
M  V30 6 1 6 7
M  V30 7 2 6 8
M  V30 8 1 8 9
M  V30 9 2 9 10
M  V30 10 1 9 11
M  V30 11 1 2 12
M  V30 12 1 10 4
M  V30 13 1 2 13
M  V30 14 1 7 14
M  V30 15 1 7 15
M  V30 16 1 11 16
M  V30 17 1 11 17
M  V30 END BOND
M  V30 END CTAB
M  END
