
     RDKit          3D

  0  0  0  0  0  0  0  0  0  0999 V3000
M  V30 BEGIN CTAB
M  V30 COUNTS 23 23 0 0 0
M  V30 BEGIN ATOM
M  V30 1 C -3.26184 -0.948452 0.341777 0
M  V30 2 O -2.53572 0.258765 0.184858 0
M  V30 3 C -1.15455 0.252738 0.0706533 0
M  V30 4 C -0.474635 -0.944472 0.110032 0
M  V30 5 C 0.903031 -0.976166 -0.00182958 0
M  V30 6 N 1.63708 -2.19975 0.0351604 0
M  V30 7 C 1.53395 0.243435 -0.151846 0
M  V30 8 C 0.849194 1.43782 -0.190594 0
M  V30 9 C -0.528238 1.4745 -0.0791548 0
M  V30 10 N -1.25875 2.69278 -0.116018 0
M  V30 11 C 3.03314 0.239729 -0.276046 0
M  V30 12 F 3.58222 -0.322018 0.861113 0
M  V30 13 F 3.44758 -0.421204 -1.402 0
M  V30 14 F 3.48283 1.55691 -0.321578 0
M  V30 15 H -2.91956 -1.71329 -0.412046 0
M  V30 16 H -4.33 -0.733844 0.124601 0
M  V30 17 H -3.13695 -1.34749 1.37776 0
M  V30 18 H -0.966317 -1.90386 0.227657 0
M  V30 19 H 1.54938 -2.7799 0.895014 0
M  V30 20 H 2.24857 -2.55763 -0.72103 0
M  V30 21 H 1.35233 2.39914 -0.309332 0
M  V30 22 H -1.91426 2.90901 -0.88952 0
M  V30 23 H -1.13848 3.38323 0.642369 0
M  V30 END ATOM
M  V30 BEGIN BOND
M  V30 1 1 1 2
M  V30 2 1 2 3
M  V30 3 2 3 4
M  V30 4 1 4 5
M  V30 5 1 5 6
M  V30 6 2 5 7
M  V30 7 1 7 8
M  V30 8 2 8 9
M  V30 9 1 9 10
M  V30 10 1 7 11
M  V30 11 1 11 12
M  V30 12 1 11 13
M  V30 13 1 11 14
M  V30 14 1 9 3
M  V30 15 1 1 15
M  V30 16 1 1 16
M  V30 17 1 1 17
M  V30 18 1 4 18
M  V30 19 1 6 19
M  V30 20 1 6 20
M  V30 21 1 8 21
M  V30 22 1 10 22
M  V30 23 1 10 23
M  V30 END BOND
M  V30 END CTAB
M  END
