
     RDKit          3D

  0  0  0  0  0  0  0  0  0  0999 V3000
M  V30 BEGIN CTAB
M  V30 COUNTS 31 32 0 0 0
M  V30 BEGIN ATOM
M  V30 1 C -1.93516 -2.62303 0.758496 0
M  V30 2 C -1.28777 -1.40636 1.35876 0
M  V30 3 C -1.63479 -0.192621 0.568137 0
M  V30 4 N -2.57924 0.642416 1.04637 0
M  V30 5 C -2.95412 1.75785 0.381675 0
M  V30 6 N -3.94808 2.63352 0.894428 0
M  V30 7 N -2.32891 1.99855 -0.800439 0
M  V30 8 C -1.3839 1.19591 -1.31449 0
M  V30 9 N -0.755339 1.49486 -2.5612 0
M  V30 10 C -1.00885 0.0645785 -0.632074 0
M  V30 11 S 0.238619 -1.0708 -1.19155 0
M  V30 12 C 1.85801 -0.605954 -0.593964 0
M  V30 13 C 2.05784 0.52635 0.171478 0
M  V30 14 C 3.28626 0.899947 0.646833 0
M  V30 15 C 4.40023 0.105622 0.350227 0
M  V30 16 Cl 5.9939 0.56183 0.949037 0
M  V30 17 C 4.22058 -1.0318 -0.414867 0
M  V30 18 C 2.94963 -1.38175 -0.883161 0
M  V30 19 H -1.48976 -3.50493 1.27801 0
M  V30 20 H -3.0203 -2.65168 0.976878 0
M  V30 21 H -1.81646 -2.70804 -0.32458 0
M  V30 22 H -1.63438 -1.27287 2.38016 0
M  V30 23 H -0.174924 -1.5942 1.29495 0
M  V30 24 H -3.69264 3.32054 1.60605 0
M  V30 25 H -4.90681 2.55789 0.538727 0
M  V30 26 H -0.899421 2.46055 -2.93979 0
M  V30 27 H -0.185007 0.818335 -3.08135 0
M  V30 28 H 1.2001 1.12336 0.389619 0
M  V30 29 H 3.44684 1.79816 1.25361 0
M  V30 30 H 5.10149 -1.63665 -0.633448 0
M  V30 31 H 2.88237 -2.27958 -1.47252 0
M  V30 END ATOM
M  V30 BEGIN BOND
M  V30 1 1 1 2
M  V30 2 1 2 3
M  V30 3 2 3 4
M  V30 4 1 4 5
M  V30 5 1 5 6
M  V30 6 2 5 7
M  V30 7 1 7 8
M  V30 8 1 8 9
M  V30 9 2 8 10
M  V30 10 1 10 11
M  V30 11 1 11 12
M  V30 12 2 12 13
M  V30 13 1 13 14
M  V30 14 2 14 15
M  V30 15 1 15 16
M  V30 16 1 15 17
M  V30 17 2 17 18
M  V30 18 1 10 3
M  V30 19 1 18 12
M  V30 20 1 1 19
M  V30 21 1 1 20
M  V30 22 1 1 21
M  V30 23 1 2 22
M  V30 24 1 2 23
M  V30 25 1 6 24
M  V30 26 1 6 25
M  V30 27 1 9 26
M  V30 28 1 9 27
M  V30 29 1 13 28
M  V30 30 1 14 29
M  V30 31 1 17 30
M  V30 32 1 18 31
M  V30 END BOND
M  V30 END CTAB
M  END
