
     RDKit          3D

  0  0  0  0  0  0  0  0  0  0999 V3000
M  V30 BEGIN CTAB
M  V30 COUNTS 28 28 0 0 0
M  V30 BEGIN ATOM
M  V30 1 N -3.608 -0.244011 1.76382 0
M  V30 2 C -2.55932 0.352853 0.938453 0
M  V30 3 C -1.65146 -0.724167 0.427611 0
M  V30 4 N -0.592588 -0.331452 -0.378351 0
M  V30 5 C -0.812774 0.184933 -1.66034 0
M  V30 6 C 0.36442 1.11635 -1.98666 0
M  V30 7 O 1.58086 0.52159 -1.75785 0
M  V30 8 C 1.71659 0.194532 -0.430247 0
M  V30 9 C 0.693918 -0.883458 -0.114473 0
M  V30 10 C 3.06767 -0.387538 -0.0918606 0
M  V30 11 N 3.04869 -0.676914 1.34094 0
M  V30 12 H -4.3357 0.459203 2.01452 0
M  V30 13 H -3.12591 -0.635109 2.61185 0
M  V30 14 H -3.10926 0.822998 0.074279 0
M  V30 15 H -2.08139 1.12104 1.54607 0
M  V30 16 H -2.2802 -1.49644 -0.0604613 0
M  V30 17 H -1.2302 -1.23912 1.34361 0
M  V30 18 H -0.830459 -0.561932 -2.49646 0
M  V30 19 H -1.72293 0.772905 -1.73714 0
M  V30 20 H 0.279136 1.48085 -3.04004 0
M  V30 21 H 0.323126 2.0388 -1.34487 0
M  V30 22 H 1.47611 1.08564 0.171928 0
M  V30 23 H 0.729914 -1.17245 0.961256 0
M  V30 24 H 0.921647 -1.79373 -0.730749 0
M  V30 25 H 3.8829 0.315326 -0.350396 0
M  V30 26 H 3.15979 -1.3719 -0.595387 0
M  V30 27 H 2.67591 0.0896665 1.91218 0
M  V30 28 H 4.0195 -0.876456 1.66877 0
M  V30 END ATOM
M  V30 BEGIN BOND
M  V30 1 1 1 2
M  V30 2 1 2 3
M  V30 3 1 3 4
M  V30 4 1 4 5
M  V30 5 1 5 6
M  V30 6 1 6 7
M  V30 7 1 7 8
M  V30 8 1 8 9
M  V30 9 1 8 10
M  V30 10 1 10 11
M  V30 11 1 9 4
M  V30 12 1 1 12
M  V30 13 1 1 13
M  V30 14 1 2 14
M  V30 15 1 2 15
M  V30 16 1 3 16
M  V30 17 1 3 17
M  V30 18 1 5 18
M  V30 19 1 5 19
M  V30 20 1 6 20
M  V30 21 1 6 21
M  V30 22 1 8 22
M  V30 23 1 9 23
M  V30 24 1 9 24
M  V30 25 1 10 25
M  V30 26 1 10 26
M  V30 27 1 11 27
M  V30 28 1 11 28
M  V30 END BOND
M  V30 END CTAB
M  END
