
     RDKit          3D

  0  0  0  0  0  0  0  0  0  0999 V3000
M  V30 BEGIN CTAB
M  V30 COUNTS 25 26 0 0 0
M  V30 BEGIN ATOM
M  V30 1 N -4.21115 -0.649635 0.63429 0
M  V30 2 C -3.18944 0.249531 1.1465 0
M  V30 3 C -1.90211 -0.071817 0.455127 0
M  V30 4 C -1.89875 0.0696571 -1.0263 0
M  V30 5 C -1.02558 0.975263 -0.106552 0
M  V30 6 C 0.435982 0.708131 -0.127792 0
M  V30 7 N 0.983906 -0.49524 -0.22791 0
M  V30 8 N 2.30271 -0.436066 -0.221991 0
M  V30 9 C 2.60988 0.867283 -0.112885 0
M  V30 10 N 1.46512 1.57909 -0.0542755 0
M  V30 11 N 3.92933 1.38966 -0.0682611 0
M  V30 12 C 3.16315 -1.58496 -0.317325 0
M  V30 13 H -4.39869 -1.4395 1.28756 0
M  V30 14 H -3.90589 -1.0507 -0.289591 0
M  V30 15 H -3.52866 1.28643 0.888772 0
M  V30 16 H -3.04099 0.145392 2.24025 0
M  V30 17 H -1.39901 -0.988875 0.859784 0
M  V30 18 H -2.7402 0.572795 -1.52903 0
M  V30 19 H -1.3072 -0.619813 -1.66594 0
M  V30 20 H -1.34675 2.03114 -0.0186109 0
M  V30 21 H 4.12195 2.402 -0.232351 0
M  V30 22 H 4.74731 0.779285 0.129676 0
M  V30 23 H 3.44795 -1.86482 0.733737 0
M  V30 24 H 2.62602 -2.44692 -0.732676 0
M  V30 25 H 4.0611 -1.40732 -0.944284 0
M  V30 END ATOM
M  V30 BEGIN BOND
M  V30 1 1 1 2
M  V30 2 1 2 3
M  V30 3 1 3 4
M  V30 4 1 4 5
M  V30 5 1 5 6
M  V30 6 2 6 7
M  V30 7 1 7 8
M  V30 8 1 8 9
M  V30 9 2 9 10
M  V30 10 1 9 11
M  V30 11 1 8 12
M  V30 12 1 5 3
M  V30 13 1 10 6
M  V30 14 1 1 13
M  V30 15 1 1 14
M  V30 16 1 2 15
M  V30 17 1 2 16
M  V30 18 1 3 17
M  V30 19 1 4 18
M  V30 20 1 4 19
M  V30 21 1 5 20
M  V30 22 1 11 21
M  V30 23 1 11 22
M  V30 24 1 12 23
M  V30 25 1 12 24
M  V30 26 1 12 25
M  V30 END BOND
M  V30 END CTAB
M  END
