
     RDKit          3D

  0  0  0  0  0  0  0  0  0  0999 V3000
M  V30 BEGIN CTAB
M  V30 COUNTS 33 34 0 0 0
M  V30 BEGIN ATOM
M  V30 1 C 3.53075 1.34736 1.70603 0
M  V30 2 O 3.73395 0.0542458 1.16872 0
M  V30 3 C 2.85174 -0.397651 0.195755 0
M  V30 4 C 3.0158 -1.66636 -0.360492 0
M  V30 5 N 4.0925 -2.49465 0.07507 0
M  V30 6 C 2.14277 -2.11738 -1.32543 0
M  V30 7 C 1.08814 -1.35175 -1.77694 0
M  V30 8 C 0.917902 -0.0990756 -1.23452 0
M  V30 9 C 1.78806 0.36712 -0.263675 0
M  V30 10 S -0.378732 0.969703 -1.72006 0
M  V30 11 O 0.0881069 2.38668 -1.57563 0
M  V30 12 O -0.69606 0.773634 -3.19112 0
M  V30 13 C -1.80339 0.745718 -0.758279 0
M  V30 14 C -1.96188 1.48186 0.381027 0
M  V30 15 C -3.11011 1.28865 1.13903 0
M  V30 16 C -4.07437 0.3818 0.765588 0
M  V30 17 N -5.24849 0.18315 1.53922 0
M  V30 18 C -3.85764 -0.335782 -0.40029 0
M  V30 19 C -2.74334 -0.177024 -1.17487 0
M  V30 20 H 3.41033 2.12132 0.899268 0
M  V30 21 H 2.61831 1.41363 2.33273 0
M  V30 22 H 4.3884 1.65664 2.34615 0
M  V30 23 H 4.34575 -2.4281 1.0868 0
M  V30 24 H 4.60319 -3.13539 -0.580731 0
M  V30 25 H 2.25293 -3.10451 -1.77264 0
M  V30 26 H 0.388862 -1.69843 -2.54189 0
M  V30 27 H 1.66973 1.34516 0.171814 0
M  V30 28 H -1.23907 2.21061 0.72738 0
M  V30 29 H -3.23245 1.87056 2.03703 0
M  V30 30 H -5.73492 0.963216 2.02739 0
M  V30 31 H -5.66463 -0.768244 1.64212 0
M  V30 32 H -4.6096 -1.05026 -0.701362 0
M  V30 33 H -2.57254 -0.736456 -2.08542 0
M  V30 END ATOM
M  V30 BEGIN BOND
M  V30 1 1 1 2
M  V30 2 1 2 3
M  V30 3 2 3 4
M  V30 4 1 4 5
M  V30 5 1 4 6
M  V30 6 2 6 7
M  V30 7 1 7 8
M  V30 8 2 8 9
M  V30 9 1 8 10
M  V30 10 2 10 11
M  V30 11 2 10 12
M  V30 12 1 10 13
M  V30 13 2 13 14
M  V30 14 1 14 15
M  V30 15 2 15 16
M  V30 16 1 16 17
M  V30 17 1 16 18
M  V30 18 2 18 19
M  V30 19 1 9 3
M  V30 20 1 19 13
M  V30 21 1 1 20
M  V30 22 1 1 21
M  V30 23 1 1 22
M  V30 24 1 5 23
M  V30 25 1 5 24
M  V30 26 1 6 25
M  V30 27 1 7 26
M  V30 28 1 9 27
M  V30 29 1 14 28
M  V30 30 1 15 29
M  V30 31 1 17 30
M  V30 32 1 17 31
M  V30 33 1 18 32
M  V30 34 1 19 33
M  V30 END BOND
M  V30 END CTAB
M  END
