
     RDKit          3D

  0  0  0  0  0  0  0  0  0  0999 V3000
M  V30 BEGIN CTAB
M  V30 COUNTS 31 32 0 0 0
M  V30 BEGIN ATOM
M  V30 1 C -4.09694 -0.546294 0.847007 0
M  V30 2 C -3.02534 0.016699 -0.0194155 0
M  V30 3 C -3.34643 0.932572 -0.97953 0
M  V30 4 N -4.66781 1.37938 -1.19441 0
M  V30 5 C -2.31149 1.43655 -1.77159 0
M  V30 6 C -1.02088 1.00335 -1.56533 0
M  V30 7 C -0.708814 0.0787225 -0.593416 0
M  V30 8 N 0.646829 -0.329372 -0.42954 0
M  V30 9 N 1.53345 0.398892 0.0792626 0
M  V30 10 C 2.89043 0.00691072 0.249968 0
M  V30 11 C 3.64213 0.725501 1.15735 0
M  V30 12 C 4.96185 0.447878 1.41338 0
M  V30 13 C 5.58399 -0.603715 0.734291 0
M  V30 14 C 4.82295 -1.31641 -0.171489 0
M  V30 15 C 3.48764 -1.02102 -0.417956 0
M  V30 16 C -1.73482 -0.423403 0.194617 0
M  V30 17 N -1.40499 -1.37652 1.19469 0
M  V30 18 H -4.39357 0.247528 1.55205 0
M  V30 19 H -3.76018 -1.47862 1.35416 0
M  V30 20 H -4.97625 -0.816574 0.223448 0
M  V30 21 H -5.47153 0.874057 -0.806902 0
M  V30 22 H -4.85603 2.23618 -1.75393 0
M  V30 23 H -2.55657 2.16588 -2.53846 0
M  V30 24 H -0.245071 1.41203 -2.19383 0
M  V30 25 H 3.19735 1.56073 1.7153 0
M  V30 26 H 5.55772 1.01902 2.13397 0
M  V30 27 H 6.60855 -0.792383 0.956385 0
M  V30 28 H 5.30755 -2.12784 -0.693774 0
M  V30 29 H 2.89261 -1.58243 -1.12978 0
M  V30 30 H -1.27286 -2.36965 0.905435 0
M  V30 31 H -1.28346 -1.15766 2.20642 0
M  V30 END ATOM
M  V30 BEGIN BOND
M  V30 1 1 1 2
M  V30 2 2 2 3
M  V30 3 1 3 4
M  V30 4 1 3 5
M  V30 5 2 5 6
M  V30 6 1 6 7
M  V30 7 1 7 8
M  V30 8 2 8 9
M  V30 9 1 9 10
M  V30 10 2 10 11
M  V30 11 1 11 12
M  V30 12 2 12 13
M  V30 13 1 13 14
M  V30 14 2 14 15
M  V30 15 2 7 16
M  V30 16 1 16 17
M  V30 17 1 16 2
M  V30 18 1 15 10
M  V30 19 1 1 18
M  V30 20 1 1 19
M  V30 21 1 1 20
M  V30 22 1 4 21
M  V30 23 1 4 22
M  V30 24 1 5 23
M  V30 25 1 6 24
M  V30 26 1 11 25
M  V30 27 1 12 26
M  V30 28 1 13 27
M  V30 29 1 14 28
M  V30 30 1 15 29
M  V30 31 1 17 30
M  V30 32 1 17 31
M  V30 END BOND
M  V30 END CTAB
M  END
