
     RDKit          3D

  0  0  0  0  0  0  0  0  0  0999 V3000
M  V30 BEGIN CTAB
M  V30 COUNTS 23 23 0 0 0
M  V30 BEGIN ATOM
M  V30 1 C -2.52391 1.44592 0.18681 0
M  V30 2 C -1.22415 0.723062 0.0248936 0
M  V30 3 C -1.29821 -0.661619 -0.0826096 0
M  V30 4 C -2.63292 -1.34648 -0.0479633 0
M  V30 5 C -0.11723 -1.32819 -0.225581 0
M  V30 6 O -0.157984 -2.5826 -0.323433 0
M  V30 7 N 1.08853 -0.732944 -0.268025 0
M  V30 8 N 2.26769 -1.44407 -0.406498 0
M  V30 9 C 1.10497 0.617112 -0.159897 0
M  V30 10 N 2.3754 1.24453 -0.21885 0
M  V30 11 N 3.12064 1.36056 0.929862 0
M  V30 12 N -0.0435941 1.33114 -0.0147708 0
M  V30 13 H -2.39224 2.50321 0.437804 0
M  V30 14 H -3.09793 0.974783 1.0284 0
M  V30 15 H -3.14556 1.34103 -0.699953 0
M  V30 16 H -3.25526 -0.881741 -0.859678 0
M  V30 17 H -2.4424 -2.41784 -0.329786 0
M  V30 18 H -3.08002 -1.22537 0.94545 0
M  V30 19 H 2.81661 -1.36831 -1.27206 0
M  V30 20 H 2.59119 -2.04832 0.362755 0
M  V30 21 H 2.69253 1.5934 -1.14755 0
M  V30 22 H 3.8188 0.596273 1.05932 0
M  V30 23 H 3.53504 2.30646 1.08136 0
M  V30 END ATOM
M  V30 BEGIN BOND
M  V30 1 1 1 2
M  V30 2 2 2 3
M  V30 3 1 3 4
M  V30 4 1 3 5
M  V30 5 2 5 6
M  V30 6 1 5 7
M  V30 7 1 7 8
M  V30 8 1 7 9
M  V30 9 1 9 10
M  V30 10 1 10 11
M  V30 11 2 9 12
M  V30 12 1 12 2
M  V30 13 1 1 13
M  V30 14 1 1 14
M  V30 15 1 1 15
M  V30 16 1 4 16
M  V30 17 1 4 17
M  V30 18 1 4 18
M  V30 19 1 8 19
M  V30 20 1 8 20
M  V30 21 1 10 21
M  V30 22 1 11 22
M  V30 23 1 11 23
M  V30 END BOND
M  V30 END CTAB
M  END
