
     RDKit          3D

  0  0  0  0  0  0  0  0  0  0999 V3000
M  V30 BEGIN CTAB
M  V30 COUNTS 21 21 0 0 0
M  V30 BEGIN ATOM
M  V30 1 C -0.943875 1.96188 0.0619637 0
M  V30 2 C 0.0410843 0.816204 0.104893 0
M  V30 3 N 1.36623 0.972539 0.0667441 0
M  V30 4 C 2.22466 -0.0551832 0.0222449 0
M  V30 5 N 3.63087 0.156456 -0.0602582 0
M  V30 6 C 1.75457 -1.3553 0.00659271 0
M  V30 7 C 0.365877 -1.56224 0.0394864 0
M  V30 8 C -0.487438 -0.454386 0.0872651 0
M  V30 9 C -1.94473 -0.643034 0.178588 0
M  V30 10 N -2.62482 -0.047902 -0.941763 0
M  V30 11 H -1.76472 1.89029 0.723349 0
M  V30 12 H -0.371266 2.85203 0.351287 0
M  V30 13 H -1.20693 2.15683 -1.02165 0
M  V30 14 H 4.09867 0.989342 0.349993 0
M  V30 15 H 4.23389 -0.53402 -0.550533 0
M  V30 16 H 2.42986 -2.1517 -0.00345347 0
M  V30 17 H 0.0343623 -2.58372 0.0589201 0
M  V30 18 H -2.3865 -0.582297 1.16732 0
M  V30 19 H -2.07378 -1.82281 -0.107586 0
M  V30 20 H -3.35456 0.599481 -0.510412 0
M  V30 21 H -3.02146 -0.60247 -1.65737 0
M  V30 END ATOM
M  V30 BEGIN BOND
M  V30 1 1 1 2
M  V30 2 2 2 3
M  V30 3 1 3 4
M  V30 4 1 4 5
M  V30 5 2 4 6
M  V30 6 1 6 7
M  V30 7 2 7 8
M  V30 8 1 8 9
M  V30 9 1 9 10
M  V30 10 1 8 2
M  V30 11 1 1 11
M  V30 12 1 1 12
M  V30 13 1 1 13
M  V30 14 1 5 14
M  V30 15 1 5 15
M  V30 16 1 6 16
M  V30 17 1 7 17
M  V30 18 1 9 18
M  V30 19 1 9 19
M  V30 20 1 10 20
M  V30 21 1 10 21
M  V30 END BOND
M  V30 END CTAB
M  END
