
     RDKit          3D

  0  0  0  0  0  0  0  0  0  0999 V3000
M  V30 BEGIN CTAB
M  V30 COUNTS 137 141 0 0 0
M  V30 BEGIN ATOM
M  V30 1 C 6.17994 2.14798 1.17553 0 CFG=2
M  V30 2 N 6.83839 2.73477 -0.00463572 0
M  V30 3 C 7.02054 0.963203 1.60771 0
M  V30 4 C 8.39391 1.39925 1.94804 0
M  V30 5 C 9.36238 1.43174 0.949405 0
M  V30 6 C 10.6636 1.82217 1.17623 0
M  V30 7 C 11.0382 2.20003 2.44225 0
M  V30 8 C 10.1008 2.17765 3.44964 0
M  V30 9 C 8.79308 1.78137 3.20504 0
M  V30 10 C 4.82085 1.70777 0.798186 0
M  V30 11 O 4.10511 1.18235 1.68198 0
M  V30 12 N 4.31374 1.85635 -0.504296 0
M  V30 13 C 2.96716 1.42244 -0.917277 0 CFG=1
M  V30 14 C 2.29365 2.66132 -1.46982 0
M  V30 15 S 0.580975 2.30974 -1.84744 0
M  V30 16 S -0.616312 3.93699 -1.27986 0
M  V30 17 C -1.24387 3.80486 0.413682 0
M  V30 18 C -2.73035 4.20426 0.415606 0 CFG=2
M  V30 19 N -3.49443 3.0795 -0.072196 0
M  V30 20 C -4.40547 2.25343 0.561331 0
M  V30 21 O -5.63295 2.33094 0.13614 0
M  V30 22 C -4.1755 1.28073 1.66633 0 CFG=1
M  V30 23 N -3.02837 0.42218 1.46647 0
M  V30 24 C -2.75063 -0.387129 0.349861 0
M  V30 25 O -1.69612 -0.113123 -0.305375 0
M  V30 26 C -3.59391 -1.54297 -0.139493 0 CFG=2
M  V30 27 C -4.3269 -2.26478 0.910979 0
M  V30 28 C -5.36912 -3.25404 0.632999 0
M  V30 29 C -5.3293 -4.35414 -0.305417 0
M  V30 30 C -5.40929 -3.96428 -1.73998 0
M  V30 31 N -5.30233 -5.16482 -2.57766 0
M  V30 32 N -2.55851 -2.44122 -0.735407 0
M  V30 33 C -1.61264 -3.27798 -0.199111 0
M  V30 34 O -1.7506 -4.53495 -0.595078 0
M  V30 35 C -0.482687 -3.11114 0.697586 0 CFG=1
M  V30 36 C -0.509886 -3.84136 2.00764 0
M  V30 37 C -0.585482 -5.27105 2.06609 0
M  V30 38 C 0.499214 -6.14875 1.92128 0
M  V30 39 N 0.0957066 -7.41938 1.95405 0
M  V30 40 C -1.25602 -7.42116 2.12228 0
M  V30 41 C -1.6839 -6.08988 2.19391 0
M  V30 42 C -3.0253 -5.92599 2.40259 0
M  V30 43 C -3.89799 -6.98062 2.52981 0
M  V30 44 C -3.45272 -8.2856 2.45169 0
M  V30 45 C -2.10741 -8.48898 2.24462 0
M  V30 46 N 0.794638 -3.39513 0.0229618 0
M  V30 47 C 1.74543 -2.54344 -0.538367 0
M  V30 48 O 2.9616 -2.57147 -0.0695626 0
M  V30 49 C 1.5837 -1.56293 -1.63933 0 CFG=2
M  V30 50 C 0.998736 -2.09854 -2.90721 0
M  V30 51 C 1.69832 -3.16069 -3.58794 0
M  V30 52 C 1.38702 -4.48282 -3.32666 0
M  V30 53 C 2.04524 -5.5194 -3.96253 0
M  V30 54 C 3.03198 -5.26246 -4.87661 0
M  V30 55 C 3.36482 -3.95809 -5.15877 0
M  V30 56 C 2.69326 -2.94137 -4.51044 0
M  V30 57 N 2.82217 -0.911632 -2.02403 0
M  V30 58 C 3.08493 0.471461 -2.05952 0
M  V30 59 O 3.46833 1.02288 -3.15184 0
M  V30 60 C -3.94255 2.0896 2.92916 0 CFG=1
M  V30 61 C -5.07978 3.04788 3.18676 0
M  V30 62 O -3.78688 1.25473 4.04091 0
M  V30 63 C -2.81683 5.29715 -0.591885 0
M  V30 64 O -3.417 5.06377 -1.66672 0
M  V30 65 N -2.26262 6.56611 -0.389987 0
M  V30 66 C -2.32877 7.6476 -1.34146 0 CFG=1
M  V30 67 C -3.33373 8.70788 -0.897225 0
M  V30 68 O -3.39607 9.74962 -1.82399 0
M  V30 69 C -1.03789 8.32647 -1.62974 0 CFG=1
M  V30 70 C -0.474898 9.06207 -0.43769 0
M  V30 71 O -0.0669945 7.48502 -2.15373 0
M  V30 72 H 6.11899 2.93258 1.92732 0
M  V30 73 H 6.93271 2.06124 -0.776909 0
M  V30 74 H 6.27344 3.5597 -0.253928 0
M  V30 75 H 6.56505 0.593406 2.57273 0
M  V30 76 H 7.01072 0.149922 0.879114 0
M  V30 77 H 9.04662 1.12692 -0.0575891 0
M  V30 78 H 11.3615 1.8249 0.36648 0
M  V30 79 H 12.0659 2.51822 2.65412 0
M  V30 80 H 10.3881 2.47392 4.45185 0
M  V30 81 H 8.08456 1.7716 4.0052 0
M  V30 82 H 4.95292 2.31424 -1.21963 0
M  V30 83 H 2.41441 1.00003 -0.0767197 0
M  V30 84 H 2.81875 2.87154 -2.44566 0
M  V30 85 H 2.43852 3.5425 -0.815294 0
M  V30 86 H -0.668439 4.51309 1.05265 0
M  V30 87 H -1.10992 2.80487 0.859087 0
M  V30 88 H -3.00948 4.56113 1.41314 0
M  V30 89 H -3.31738 2.88287 -1.11654 0
M  V30 90 H -5.12748 0.696532 1.76088 0
M  V30 91 H -2.30766 0.412538 2.24507 0
M  V30 92 H -4.25406 -1.15557 -0.8997 0
M  V30 93 H -3.49678 -2.8756 1.45311 0
M  V30 94 H -4.67361 -1.50736 1.68259 0
M  V30 95 H -6.35643 -2.64516 0.500784 0
M  V30 96 H -5.63289 -3.69383 1.69546 0
M  V30 97 H -4.48177 -5.04461 -0.100658 0
M  V30 98 H -6.23531 -5.03625 -0.0918436 0
M  V30 99 H -4.80567 -3.16112 -2.08102 0
M  V30 100 H -6.4943 -3.59243 -1.95916 0
M  V30 101 H -5.62169 -4.86585 -3.54904 0
M  V30 102 H -6.0223 -5.84046 -2.21486 0
M  V30 103 H -2.58682 -2.39293 -1.8138 0
M  V30 104 H -0.493185 -2.0288 1.03822 0
M  V30 105 H -1.292 -3.35611 2.69954 0
M  V30 106 H 0.449236 -3.51312 2.54754 0
M  V30 107 H 1.50759 -5.81965 1.80469 0
M  V30 108 H 0.670769 -8.28503 1.86714 0
M  V30 109 H -3.39048 -4.91269 2.4803 0
M  V30 110 H -4.954 -6.83247 2.69412 0
M  V30 111 H -4.12087 -9.12969 2.54678 0
M  V30 112 H -1.76363 -9.51537 2.18571 0
M  V30 113 H 1.01033 -4.41932 -0.0330486 0
M  V30 114 H 0.892095 -0.799695 -1.23423 0
M  V30 115 H 0.967181 -1.22369 -3.6317 0
M  V30 116 H -0.0699558 -2.32928 -2.73769 0
M  V30 117 H 0.623717 -4.78363 -2.62836 0
M  V30 118 H 1.77819 -6.56198 -3.73534 0
M  V30 119 H 3.56552 -6.07861 -5.38942 0
M  V30 120 H 4.15492 -3.76684 -5.89173 0
M  V30 121 H 2.95052 -1.9393 -4.72995 0
M  V30 122 H 3.63156 -1.53198 -2.32807 0
M  V30 123 H -2.99849 2.64329 2.80597 0
M  V30 124 H -5.45978 2.86629 4.21099 0
M  V30 125 H -5.9475 2.88176 2.51073 0
M  V30 126 H -4.70906 4.09004 3.16406 0
M  V30 127 H -4.57041 0.660356 4.17998 0
M  V30 128 H -1.771 6.72847 0.512865 0
M  V30 129 H -2.74425 7.24473 -2.28286 0
M  V30 130 H -3.03177 9.18347 0.0755458 0
M  V30 131 H -4.34025 8.28626 -0.79722 0
M  V30 132 H -3.9405 9.40623 -2.59174 0
M  V30 133 H -1.24761 9.0854 -2.42061 0
M  V30 134 H -1.06541 8.94449 0.46605 0
M  V30 135 H -0.402066 10.1424 -0.657874 0
M  V30 136 H 0.582545 8.7324 -0.221641 0
M  V30 137 H -0.517444 6.91924 -2.84645 0
M  V30 END ATOM
M  V30 BEGIN BOND
M  V30 1 1 1 2
M  V30 2 1 1 3
M  V30 3 1 3 4
M  V30 4 2 4 5
M  V30 5 1 5 6
M  V30 6 2 6 7
M  V30 7 1 7 8
M  V30 8 2 8 9
M  V30 9 1 1 10
M  V30 10 2 10 11
M  V30 11 1 10 12
M  V30 12 1 12 13
M  V30 13 1 13 14
M  V30 14 1 14 15
M  V30 15 1 15 16
M  V30 16 1 16 17
M  V30 17 1 17 18
M  V30 18 1 18 19
M  V30 19 1 19 20
M  V30 20 2 20 21
M  V30 21 1 20 22
M  V30 22 1 22 23
M  V30 23 1 23 24
M  V30 24 2 24 25
M  V30 25 1 24 26
M  V30 26 1 26 27
M  V30 27 1 27 28
M  V30 28 1 28 29
M  V30 29 1 29 30
M  V30 30 1 30 31
M  V30 31 1 26 32
M  V30 32 1 32 33
M  V30 33 2 33 34
M  V30 34 1 33 35
M  V30 35 1 35 36
M  V30 36 1 36 37
M  V30 37 2 37 38
M  V30 38 1 38 39
M  V30 39 1 39 40
M  V30 40 2 40 41
M  V30 41 1 41 42
M  V30 42 2 42 43
M  V30 43 1 43 44
M  V30 44 2 44 45
M  V30 45 1 35 46
M  V30 46 1 46 47
M  V30 47 2 47 48
M  V30 48 1 47 49
M  V30 49 1 49 50
M  V30 50 1 50 51
M  V30 51 2 51 52
M  V30 52 1 52 53
M  V30 53 2 53 54
M  V30 54 1 54 55
M  V30 55 2 55 56
M  V30 56 1 49 57
M  V30 57 1 57 58
M  V30 58 2 58 59
M  V30 59 1 22 60
M  V30 60 1 60 61
M  V30 61 1 60 62
M  V30 62 1 18 63
M  V30 63 2 63 64
M  V30 64 1 63 65
M  V30 65 1 65 66
M  V30 66 1 66 67
M  V30 67 1 67 68
M  V30 68 1 66 69
M  V30 69 1 69 70
M  V30 70 1 69 71
M  V30 71 1 9 4
M  V30 72 1 58 13
M  V30 73 1 41 37
M  V30 74 1 56 51
M  V30 75 1 45 40
M  V30 76 1 1 72 CFG=1
M  V30 77 1 2 73
M  V30 78 1 2 74
M  V30 79 1 3 75
M  V30 80 1 3 76
M  V30 81 1 5 77
M  V30 82 1 6 78
M  V30 83 1 7 79
M  V30 84 1 8 80
M  V30 85 1 9 81
M  V30 86 1 12 82
M  V30 87 1 13 83 CFG=1
M  V30 88 1 14 84
M  V30 89 1 14 85
M  V30 90 1 17 86
M  V30 91 1 17 87
M  V30 92 1 18 88 CFG=1
M  V30 93 1 19 89
M  V30 94 1 22 90 CFG=1
M  V30 95 1 23 91
M  V30 96 1 26 92 CFG=3
M  V30 97 1 27 93
M  V30 98 1 27 94
M  V30 99 1 28 95
M  V30 100 1 28 96
M  V30 101 1 29 97
M  V30 102 1 29 98
M  V30 103 1 30 99
M  V30 104 1 30 100
M  V30 105 1 31 101
M  V30 106 1 31 102
M  V30 107 1 32 103
M  V30 108 1 35 104 CFG=1
M  V30 109 1 36 105
M  V30 110 1 36 106
M  V30 111 1 38 107
M  V30 112 1 39 108
M  V30 113 1 42 109
M  V30 114 1 43 110
M  V30 115 1 44 111
M  V30 116 1 45 112
M  V30 117 1 46 113
M  V30 118 1 49 114 CFG=1
M  V30 119 1 50 115
M  V30 120 1 50 116
M  V30 121 1 52 117
M  V30 122 1 53 118
M  V30 123 1 54 119
M  V30 124 1 55 120
M  V30 125 1 56 121
M  V30 126 1 57 122
M  V30 127 1 60 123 CFG=3
M  V30 128 1 61 124
M  V30 129 1 61 125
M  V30 130 1 61 126
M  V30 131 1 62 127
M  V30 132 1 65 128
M  V30 133 1 66 129 CFG=3
M  V30 134 1 67 130
M  V30 135 1 67 131
M  V30 136 1 68 132
M  V30 137 1 69 133 CFG=3
M  V30 138 1 70 134
M  V30 139 1 70 135
M  V30 140 1 70 136
M  V30 141 1 71 137
M  V30 END BOND
M  V30 END CTAB
M  END
