
     RDKit          3D

  0  0  0  0  0  0  0  0  0  0999 V3000
M  V30 BEGIN CTAB
M  V30 COUNTS 43 45 0 0 0
M  V30 BEGIN ATOM
M  V30 1 N 7.16666 0.92389 -0.348095 0
M  V30 2 C 5.84877 1.51581 -0.378336 0
M  V30 3 C 4.8823 0.851161 -1.33722 0
M  V30 4 C 3.79777 1.13174 -0.288231 0
M  V30 5 C 4.93053 1.07119 0.741957 0
M  V30 6 C 2.79121 0.0846396 -0.157475 0
M  V30 7 C 1.46092 0.437856 -0.150547 0
M  V30 8 C 0.452555 -0.51621 -0.0286131 0
M  V30 9 N -0.918865 -0.115866 -0.0249135 0
M  V30 10 C -1.94182 -1.12202 0.102444 0
M  V30 11 C -3.30195 -0.556337 0.0898875 0
M  V30 12 N -3.45422 0.766801 -0.0314903 0
M  V30 13 C -4.67892 1.29151 -0.0443001 0
M  V30 14 C -4.9307 2.76678 -0.177153 0
M  V30 15 C -5.79483 0.487743 0.0661015 0
M  V30 16 C -5.62884 -0.878189 0.191143 0
M  V30 17 N -4.37171 -1.35033 0.19796 0
M  V30 18 C -6.78673 -1.79546 0.313607 0
M  V30 19 N 0.79195 -1.79043 0.0827007 0
M  V30 20 C 2.08503 -2.15034 0.0775506 0
M  V30 21 N 3.07963 -1.22006 -0.0416908 0
M  V30 22 N 2.37637 -3.53273 0.200653 0
M  V30 23 H 7.53666 0.961878 0.611403 0
M  V30 24 H 7.196 -0.020794 -0.789468 0
M  V30 25 H 5.87811 2.61291 -0.462088 0
M  V30 26 H 5.08408 -0.231722 -1.45386 0
M  V30 27 H 4.72582 1.40689 -2.28323 0
M  V30 28 H 3.42791 2.15211 -0.374295 0
M  V30 29 H 5.12876 0.0541714 1.12379 0
M  V30 30 H 4.81297 1.81233 1.56996 0
M  V30 31 H 1.15833 1.47778 -0.240615 0
M  V30 32 H -1.1633 0.903739 -0.114808 0
M  V30 33 H -1.86785 -1.89522 -0.704529 0
M  V30 34 H -1.71921 -1.6787 1.05132 0
M  V30 35 H -5.75553 2.87205 -0.933151 0
M  V30 36 H -5.28269 3.17408 0.778302 0
M  V30 37 H -4.01514 3.29533 -0.516407 0
M  V30 38 H -6.79744 0.904132 0.0568749 0
M  V30 39 H -6.42666 -2.82953 0.15471 0
M  V30 40 H -7.60187 -1.50393 -0.357924 0
M  V30 41 H -7.10237 -1.74869 1.39365 0
M  V30 42 H 3.1021 -3.83078 0.857579 0
M  V30 43 H 1.82617 -4.18921 -0.395643 0
M  V30 END ATOM
M  V30 BEGIN BOND
M  V30 1 1 1 2
M  V30 2 1 2 3
M  V30 3 1 3 4
M  V30 4 1 4 5
M  V30 5 1 4 6
M  V30 6 2 6 7
M  V30 7 1 7 8
M  V30 8 1 8 9
M  V30 9 1 9 10
M  V30 10 1 10 11
M  V30 11 2 11 12
M  V30 12 1 12 13
M  V30 13 1 13 14
M  V30 14 2 13 15
M  V30 15 1 15 16
M  V30 16 2 16 17
M  V30 17 1 16 18
M  V30 18 2 8 19
M  V30 19 1 19 20
M  V30 20 2 20 21
M  V30 21 1 20 22
M  V30 22 1 5 2
M  V30 23 1 21 6
M  V30 24 1 17 11
M  V30 25 1 1 23
M  V30 26 1 1 24
M  V30 27 1 2 25
M  V30 28 1 3 26
M  V30 29 1 3 27
M  V30 30 1 4 28
M  V30 31 1 5 29
M  V30 32 1 5 30
M  V30 33 1 7 31
M  V30 34 1 9 32
M  V30 35 1 10 33
M  V30 36 1 10 34
M  V30 37 1 14 35
M  V30 38 1 14 36
M  V30 39 1 14 37
M  V30 40 1 15 38
M  V30 41 1 18 39
M  V30 42 1 18 40
M  V30 43 1 18 41
M  V30 44 1 22 42
M  V30 45 1 22 43
M  V30 END BOND
M  V30 END CTAB
M  END
