
     RDKit          3D

  0  0  0  0  0  0  0  0  0  0999 V3000
M  V30 BEGIN CTAB
M  V30 COUNTS 29 29 0 0 0
M  V30 BEGIN ATOM
M  V30 1 C 4.0466 0.641317 0.258063 0
M  V30 2 C 3.49708 -0.457649 -0.65139 0
M  V30 3 O 2.11762 -0.657855 -0.432236 0
M  V30 4 C 1.24266 0.374936 -0.631505 0
M  V30 5 O 1.76238 1.49299 -1.01818 0
M  V30 6 C -0.191061 0.357303 -0.463509 0
M  V30 7 C -0.914146 1.49465 -0.848348 0
M  V30 8 C -2.28834 1.53202 -0.783871 0
M  V30 9 N -3.00972 2.68641 -1.17494 0
M  V30 10 C -2.96827 0.440933 -0.336485 0
M  V30 11 C -2.30603 -0.70431 0.0558769 0
M  V30 12 C -0.900689 -0.704271 -0.0225298 0
M  V30 13 O -0.260426 -1.86493 0.388533 0
M  V30 14 C 0.0334407 -1.99186 1.78147 0
M  V30 15 F -0.914025 -2.85392 2.37245 0
M  V30 16 F 1.24816 -2.55555 2.02223 0
M  V30 17 N -2.99561 -1.85431 0.512145 0
M  V30 18 H 4.88344 0.263973 0.88487 0
M  V30 19 H 4.40278 1.50992 -0.332995 0
M  V30 20 H 3.24025 0.935042 0.972963 0
M  V30 21 H 3.72393 -0.163888 -1.69302 0
M  V30 22 H 4.08049 -1.37378 -0.442325 0
M  V30 23 H -0.382507 2.36336 -1.20409 0
M  V30 24 H -3.82758 2.63873 -1.8082 0
M  V30 25 H -2.70277 3.61001 -0.810469 0
M  V30 26 H -4.05137 0.43877 -0.274886 0
M  V30 27 H -0.0838951 -1.04464 2.33784 0
M  V30 28 H -3.6775 -1.79314 1.27976 0
M  V30 29 H -2.80489 -2.76026 0.062786 0
M  V30 END ATOM
M  V30 BEGIN BOND
M  V30 1 1 1 2
M  V30 2 1 2 3
M  V30 3 1 3 4
M  V30 4 2 4 5
M  V30 5 1 4 6
M  V30 6 2 6 7
M  V30 7 1 7 8
M  V30 8 1 8 9
M  V30 9 2 8 10
M  V30 10 1 10 11
M  V30 11 2 11 12
M  V30 12 1 12 13
M  V30 13 1 13 14
M  V30 14 1 14 15
M  V30 15 1 14 16
M  V30 16 1 11 17
M  V30 17 1 12 6
M  V30 18 1 1 18
M  V30 19 1 1 19
M  V30 20 1 1 20
M  V30 21 1 2 21
M  V30 22 1 2 22
M  V30 23 1 7 23
M  V30 24 1 9 24
M  V30 25 1 9 25
M  V30 26 1 10 26
M  V30 27 1 14 27
M  V30 28 1 17 28
M  V30 29 1 17 29
M  V30 END BOND
M  V30 END CTAB
M  END
