
     RDKit          3D

  0  0  0  0  0  0  0  0  0  0999 V3000
M  V30 BEGIN CTAB
M  V30 COUNTS 48 50 0 0 0
M  V30 BEGIN ATOM
M  V30 1 N -8.59897 0.283888 1.67721 0
M  V30 2 C -8.68312 0.808066 0.340719 0
M  V30 3 C -7.61155 0.282281 -0.578473 0
M  V30 4 C -6.23682 0.62492 -0.0798355 0
M  V30 5 O -6.16267 1.26821 0.974706 0
M  V30 6 N -5.10481 0.222793 -0.794686 0
M  V30 7 C -3.778 0.514976 -0.3972 0
M  V30 8 C -2.73388 -0.303735 -0.857196 0
M  V30 9 C -1.41453 -0.107341 -0.565504 0
M  V30 10 C -1.11403 0.978981 0.239609 0
M  V30 11 C -2.10087 1.80822 0.713187 0
M  V30 12 C -3.44282 1.57773 0.394179 0
M  V30 13 C 0.290274 1.2253 0.576875 0
M  V30 14 O 0.560204 2.20479 1.3027 0
M  V30 15 C 1.37041 0.372176 0.0969668 0
M  V30 16 C 1.06135 -0.709077 -0.705573 0
M  V30 17 C 2.07331 -1.52098 -1.16445 0
M  V30 18 C 3.41897 -1.29459 -0.848215 0
M  V30 19 C 3.74331 -0.227879 -0.0533099 0
M  V30 20 N 5.0559 0.086088 0.344813 0
M  V30 21 C 6.17835 -0.711984 0.284559 0
M  V30 22 O 6.13554 -1.88538 -0.158773 0
M  V30 23 C 7.50693 -0.157267 0.768248 0
M  V30 24 C 8.55267 -1.23216 0.588146 0
M  V30 25 N 8.6086 -1.56449 -0.835281 0
M  V30 26 C 2.68741 0.589219 0.403741 0
M  V30 27 C -0.34464 -0.962934 -1.04837 0
M  V30 28 O -0.627369 -1.93112 -1.76766 0
M  V30 29 H -8.03086 -0.58437 1.68603 0
M  V30 30 H -8.2275 1.03376 2.29588 0
M  V30 31 H -9.65319 0.470849 -0.0988419 0
M  V30 32 H -8.72871 1.89791 0.381699 0
M  V30 33 H -7.67636 -0.806235 -0.607705 0
M  V30 34 H -7.74313 0.748107 -1.55874 0
M  V30 35 H -5.22555 -0.347991 -1.71489 0
M  V30 36 H -3.00634 -1.13673 -1.47942 0
M  V30 37 H -1.84604 2.66445 1.34985 0
M  V30 38 H -4.16127 2.2862 0.790641 0
M  V30 39 H 1.85059 -2.37496 -1.79599 0
M  V30 40 H 4.15949 -1.96816 -1.2552 0
M  V30 41 H 5.20078 1.07607 0.742352 0
M  V30 42 H 7.3876 0.161115 1.80416 0
M  V30 43 H 7.73352 0.718372 0.13253 0
M  V30 44 H 9.52216 -0.801186 0.940052 0
M  V30 45 H 8.28293 -2.15397 1.11122 0
M  V30 46 H 9.60095 -1.82762 -1.03787 0
M  V30 47 H 8.33601 -0.733691 -1.39692 0
M  V30 48 H 2.93581 1.43937 1.03652 0
M  V30 END ATOM
M  V30 BEGIN BOND
M  V30 1 1 1 2
M  V30 2 1 2 3
M  V30 3 1 3 4
M  V30 4 2 4 5
M  V30 5 1 4 6
M  V30 6 1 6 7
M  V30 7 2 7 8
M  V30 8 1 8 9
M  V30 9 2 9 10
M  V30 10 1 10 11
M  V30 11 2 11 12
M  V30 12 1 10 13
M  V30 13 2 13 14
M  V30 14 1 13 15
M  V30 15 2 15 16
M  V30 16 1 16 17
M  V30 17 2 17 18
M  V30 18 1 18 19
M  V30 19 1 19 20
M  V30 20 1 20 21
M  V30 21 2 21 22
M  V30 22 1 21 23
M  V30 23 1 23 24
M  V30 24 1 24 25
M  V30 25 2 19 26
M  V30 26 1 16 27
M  V30 27 2 27 28
M  V30 28 1 12 7
M  V30 29 1 26 15
M  V30 30 1 27 9
M  V30 31 1 1 29
M  V30 32 1 1 30
M  V30 33 1 2 31
M  V30 34 1 2 32
M  V30 35 1 3 33
M  V30 36 1 3 34
M  V30 37 1 6 35
M  V30 38 1 8 36
M  V30 39 1 11 37
M  V30 40 1 12 38
M  V30 41 1 17 39
M  V30 42 1 18 40
M  V30 43 1 20 41
M  V30 44 1 23 42
M  V30 45 1 23 43
M  V30 46 1 24 44
M  V30 47 1 24 45
M  V30 48 1 25 46
M  V30 49 1 25 47
M  V30 50 1 26 48
M  V30 END BOND
M  V30 END CTAB
M  END
