
     RDKit          3D

  0  0  0  0  0  0  0  0  0  0999 V3000
M  V30 BEGIN CTAB
M  V30 COUNTS 17 17 0 0 0
M  V30 BEGIN ATOM
M  V30 1 N 2.21334 -0.198913 -0.0317571 0
M  V30 2 C 0.991082 -0.601355 0.548802 0
M  V30 3 C -0.239663 -0.0951154 -0.147115 0
M  V30 4 N -0.428791 -0.45908 -1.49511 0
M  V30 5 C -0.604557 1.33606 0.121305 0
M  V30 6 O -1.90434 0.917448 0.438017 0
M  V30 7 C -1.46669 -0.397097 0.690966 0
M  V30 8 H 2.74228 0.532065 0.475961 0
M  V30 9 H 2.22551 -0.104814 -1.05964 0
M  V30 10 H 0.941837 -1.72774 0.507836 0
M  V30 11 H 0.980017 -0.355644 1.62928 0
M  V30 12 H -0.351288 0.265083 -2.20094 0
M  V30 13 H -1.00084 -1.27367 -1.69244 0
M  V30 14 H -0.0531128 1.8174 0.933322 0
M  V30 15 H -0.640574 1.98837 -0.790084 0
M  V30 16 H -1.26273 -0.478955 1.78692 0
M  V30 17 H -2.14147 -1.16404 0.284679 0
M  V30 END ATOM
M  V30 BEGIN BOND
M  V30 1 1 1 2
M  V30 2 1 2 3
M  V30 3 1 3 4
M  V30 4 1 3 5
M  V30 5 1 5 6
M  V30 6 1 6 7
M  V30 7 1 7 3
M  V30 8 1 1 8
M  V30 9 1 1 9
M  V30 10 1 2 10
M  V30 11 1 2 11
M  V30 12 1 4 12
M  V30 13 1 4 13
M  V30 14 1 5 14
M  V30 15 1 5 15
M  V30 16 1 7 16
M  V30 17 1 7 17
M  V30 END BOND
M  V30 END CTAB
M  END
