
     RDKit          3D

  0  0  0  0  0  0  0  0  0  0999 V3000
M  V30 BEGIN CTAB
M  V30 COUNTS 26 27 0 0 0
M  V30 BEGIN ATOM
M  V30 1 N -2.66977 2.26864 1.01808 0
M  V30 2 C -2.28479 1.04629 0.406273 0
M  V30 3 C -0.959883 0.675735 0.363474 0
M  V30 4 C -0.0130836 1.49576 0.916227 0
M  V30 5 C 1.31646 1.13117 0.877218 0
M  V30 6 C 1.70082 -0.0549235 0.284853 0
M  V30 7 C 0.780303 -0.899378 -0.277937 0
M  V30 8 N 1.17874 -2.12101 -0.887721 0
M  V30 9 C -0.545545 -0.522044 -0.231641 0
M  V30 10 C -1.48816 -1.35581 -0.79126 0
M  V30 11 C -2.79914 -1.00879 -0.75947 0
M  V30 12 C -3.19579 0.18459 -0.164637 0
M  V30 13 S 3.3877 -0.477351 0.257343 0
M  V30 14 O 3.83441 -0.624479 -1.37134 0
M  V30 15 O 3.66809 -1.74435 1.00461 0
M  V30 16 O 4.20354 0.630359 0.828774 0
M  V30 17 H -2.83075 3.09782 0.398516 0
M  V30 18 H -2.80459 2.40557 2.03344 0
M  V30 19 H -0.356303 2.41869 1.37192 0
M  V30 20 H 2.07263 1.78161 1.31624 0
M  V30 21 H 1.86052 -2.07022 -1.67873 0
M  V30 22 H 0.855116 -3.05157 -0.619141 0
M  V30 23 H -1.12277 -2.28751 -1.24909 0
M  V30 24 H -3.52542 -1.6857 -1.2092 0
M  V30 25 H -4.2325 0.458802 -0.139627 0
M  V30 26 H 3.97018 0.308095 -1.69717 0
M  V30 END ATOM
M  V30 BEGIN BOND
M  V30 1 1 1 2
M  V30 2 2 2 3
M  V30 3 1 3 4
M  V30 4 2 4 5
M  V30 5 1 5 6
M  V30 6 2 6 7
M  V30 7 1 7 8
M  V30 8 1 7 9
M  V30 9 2 9 10
M  V30 10 1 10 11
M  V30 11 2 11 12
M  V30 12 1 6 13
M  V30 13 1 13 14
M  V30 14 2 13 15
M  V30 15 2 13 16
M  V30 16 1 12 2
M  V30 17 1 9 3
M  V30 18 1 1 17
M  V30 19 1 1 18
M  V30 20 1 4 19
M  V30 21 1 5 20
M  V30 22 1 8 21
M  V30 23 1 8 22
M  V30 24 1 10 23
M  V30 25 1 11 24
M  V30 26 1 12 25
M  V30 27 1 14 26
M  V30 END BOND
M  V30 END CTAB
M  END
