
     RDKit          3D

  0  0  0  0  0  0  0  0  0  0999 V3000
M  V30 BEGIN CTAB
M  V30 COUNTS 35 37 0 0 0
M  V30 BEGIN ATOM
M  V30 1 C -5.15583 1.65889 1.97324 0
M  V30 2 S -4.62927 -0.0708933 2.04701 0
M  V30 3 C -3.36692 -0.40093 0.81756 0
M  V30 4 C -3.68515 -0.813529 -0.458911 0
M  V30 5 C -5.09029 -0.975812 -0.785269 0
M  V30 6 N -6.2173 -1.10573 -1.02666 0
M  V30 7 C -2.69963 -1.06288 -1.39205 0
M  V30 8 N -3.0741 -1.48453 -2.68959 0
M  V30 9 N -1.42389 -0.882359 -0.989615 0
M  V30 10 C -1.12708 -0.478028 0.263273 0
M  V30 11 N -2.08248 -0.233341 1.17734 0
M  V30 12 N -1.46182 0.139971 2.28652 0
M  V30 13 C -0.128342 0.144655 2.11841 0
M  V30 14 C 0.114069 -0.250871 0.819643 0
M  V30 15 N 1.3674 -0.401868 0.164507 0
M  V30 16 N 2.31344 0.403992 0.238316 0
M  V30 17 C 3.56547 0.265183 -0.408667 0
M  V30 18 C 3.92397 -0.911453 -0.991542 0
M  V30 19 C 5.14419 -1.07992 -1.6338 0
M  V30 20 C 5.99561 0.020468 -1.65601 0
M  V30 21 C 5.66647 1.22532 -1.07729 0
M  V30 22 C 4.45037 1.32229 -0.462013 0
M  V30 23 F 7.18341 -0.107032 -2.26847 0
M  V30 24 N 0.874496 0.484909 3.06923 0
M  V30 25 H -5.22172 2.02961 0.925431 0
M  V30 26 H -4.40313 2.27902 2.5327 0
M  V30 27 H -6.163 1.7909 2.41042 0
M  V30 28 H -3.45207 -2.43433 -2.8565 0
M  V30 29 H -2.96885 -0.832746 -3.48727 0
M  V30 30 H 3.25886 -1.76917 -0.973566 0
M  V30 31 H 5.41183 -2.00624 -2.08573 0
M  V30 32 H 6.38025 2.02749 -1.13797 0
M  V30 33 H 4.2057 2.28291 -0.00908135 0
M  V30 34 H 1.69596 -0.119683 3.20297 0
M  V30 35 H 0.799366 1.34571 3.64527 0
M  V30 END ATOM
M  V30 BEGIN BOND
M  V30 1 1 1 2
M  V30 2 1 2 3
M  V30 3 2 3 4
M  V30 4 1 4 5
M  V30 5 3 5 6
M  V30 6 1 4 7
M  V30 7 1 7 8
M  V30 8 2 7 9
M  V30 9 1 9 10
M  V30 10 1 10 11
M  V30 11 1 11 12
M  V30 12 2 12 13
M  V30 13 1 13 14
M  V30 14 1 14 15
M  V30 15 2 15 16
M  V30 16 1 16 17
M  V30 17 2 17 18
M  V30 18 1 18 19
M  V30 19 2 19 20
M  V30 20 1 20 21
M  V30 21 2 21 22
M  V30 22 1 20 23
M  V30 23 1 13 24
M  V30 24 1 11 3
M  V30 25 1 22 17
M  V30 26 2 14 10
M  V30 27 1 1 25
M  V30 28 1 1 26
M  V30 29 1 1 27
M  V30 30 1 8 28
M  V30 31 1 8 29
M  V30 32 1 18 30
M  V30 33 1 19 31
M  V30 34 1 21 32
M  V30 35 1 22 33
M  V30 36 1 24 34
M  V30 37 1 24 35
M  V30 END BOND
M  V30 END CTAB
M  END
