
     RDKit          3D

  0  0  0  0  0  0  0  0  0  0999 V3000
M  V30 BEGIN CTAB
M  V30 COUNTS 32 34 0 0 0
M  V30 BEGIN ATOM
M  V30 1 N 3.61199 3.02703 0.313004 0
M  V30 2 C 3.20169 1.66184 0.273832 0
M  V30 3 N 1.94279 1.31166 -0.0473235 0
M  V30 4 C 1.55866 0.00860417 -0.082676 0
M  V30 5 C 2.48002 -0.97584 0.217348 0
M  V30 6 N 1.83782 -2.14285 0.105285 0
M  V30 7 C 0.569967 -1.88184 -0.250289 0
M  V30 8 N 0.366831 -0.568759 -0.373838 0
M  V30 9 C -0.8476 0.150941 -0.73903 0 CFG=1
M  V30 10 C -1.65931 -0.709682 -1.67726 0
M  V30 11 C -3.01832 -0.745381 -0.968756 0
M  V30 12 C -2.92823 0.524046 -0.142387 0 CFG=1
M  V30 13 C -3.95708 0.535731 0.964967 0
M  V30 14 O -5.24546 0.61974 0.443181 0
M  V30 15 O -1.63184 0.440249 0.352206 0
M  V30 16 C 3.79057 -0.616563 0.551959 0
M  V30 17 N 4.69899 -1.64858 0.851009 0
M  V30 18 N 4.07975 0.684116 0.561826 0
M  V30 19 H 4.46242 3.28417 0.832819 0
M  V30 20 H 3.06071 3.73165 -0.172523 0
M  V30 21 H -0.160354 -2.656 -0.40668 0
M  V30 22 H -0.582257 1.13541 -1.22418 0
M  V30 23 H -1.8299 -0.132943 -2.60889 0
M  V30 24 H -1.24803 -1.70281 -1.84505 0
M  V30 25 H -2.98547 -1.63598 -0.297244 0
M  V30 26 H -3.85399 -0.751663 -1.66949 0
M  V30 27 H -3.0137 1.38854 -0.809471 0
M  V30 28 H -3.82404 -0.271555 1.68314 0
M  V30 29 H -3.79358 1.49298 1.52585 0
M  V30 30 H -5.19996 0.563545 -0.542464 0
M  V30 31 H 4.99799 -1.9399 1.79799 0
M  V30 32 H 5.11893 -2.17991 0.0377324 0
M  V30 END ATOM
M  V30 BEGIN BOND
M  V30 1 1 1 2
M  V30 2 2 2 3
M  V30 3 1 3 4
M  V30 4 2 4 5
M  V30 5 1 5 6
M  V30 6 2 6 7
M  V30 7 1 7 8
M  V30 8 1 8 9
M  V30 9 1 9 10
M  V30 10 1 10 11
M  V30 11 1 11 12
M  V30 12 1 12 13
M  V30 13 1 13 14
M  V30 14 1 12 15
M  V30 15 1 5 16
M  V30 16 1 16 17
M  V30 17 2 16 18
M  V30 18 1 18 2
M  V30 19 1 8 4
M  V30 20 1 15 9
M  V30 21 1 1 19
M  V30 22 1 1 20
M  V30 23 1 7 21
M  V30 24 1 9 22 CFG=3
M  V30 25 1 10 23
M  V30 26 1 10 24
M  V30 27 1 11 25
M  V30 28 1 11 26
M  V30 29 1 12 27 CFG=3
M  V30 30 1 13 28
M  V30 31 1 13 29
M  V30 32 1 14 30
M  V30 33 1 17 31
M  V30 34 1 17 32
M  V30 END BOND
M  V30 END CTAB
M  END
