
     RDKit          3D

  0  0  0  0  0  0  0  0  0  0999 V3000
M  V30 BEGIN CTAB
M  V30 COUNTS 47 48 0 0 0
M  V30 BEGIN ATOM
M  V30 1 N -3.40119 -2.15596 1.94607 0
M  V30 2 C -2.50146 -1.70484 0.874847 0
M  V30 3 C -3.19348 -0.533689 0.213303 0
M  V30 4 C -3.42357 0.564399 1.2245 0
M  V30 5 C -4.36496 1.56922 0.577972 0
M  V30 6 C -3.60252 2.19999 -0.568226 0
M  V30 7 C -3.25655 1.121 -1.56836 0
M  V30 8 C -2.41228 0.0264056 -0.935589 0
M  V30 9 N -1.10458 0.481501 -0.580139 0
M  V30 10 C 0.0677704 -0.0485745 -1.17067 0
M  V30 11 O -0.0528751 -0.951112 -2.03757 0
M  V30 12 C 1.42994 0.416339 -0.809224 0
M  V30 13 C 2.49378 -0.288344 -1.56208 0
M  V30 14 C 3.56004 -0.930411 -0.752493 0
M  V30 15 N 3.87517 -0.342882 0.488206 0
M  V30 16 C 3.07315 0.747087 0.908672 0
M  V30 17 C 1.62696 0.328212 0.709459 0
M  V30 18 S 5.54905 -0.138488 0.784217 0
M  V30 19 O 6.21164 0.742026 -0.221162 0
M  V30 20 O 5.70852 0.457017 2.17301 0
M  V30 21 N 6.37054 -1.65363 0.803711 0
M  V30 22 H -4.40177 -1.89096 1.72315 0
M  V30 23 H -3.367 -3.17407 2.07862 0
M  V30 24 H -1.57657 -1.32139 1.33832 0
M  V30 25 H -2.36958 -2.54686 0.198132 0
M  V30 26 H -4.18702 -0.847244 -0.175776 0
M  V30 27 H -2.47405 1.04543 1.52975 0
M  V30 28 H -3.92508 0.0696376 2.10391 0
M  V30 29 H -5.20017 0.985804 0.135469 0
M  V30 30 H -4.72415 2.32989 1.27997 0
M  V30 31 H -2.72381 2.76618 -0.227974 0
M  V30 32 H -4.30947 2.88826 -1.0757 0
M  V30 33 H -2.75156 1.57721 -2.44021 0
M  V30 34 H -4.20552 0.65512 -1.89444 0
M  V30 35 H -2.33462 -0.77681 -1.71903 0
M  V30 36 H -0.997041 1.22547 0.133872 0
M  V30 37 H 1.45527 1.51421 -1.03229 0
M  V30 38 H 1.98857 -1.07644 -2.1871 0
M  V30 39 H 2.947 0.407883 -2.30638 0
M  V30 40 H 4.48663 -1.00342 -1.36258 0
M  V30 41 H 3.2567 -2.00279 -0.567018 0
M  V30 42 H 3.30767 1.65963 0.298452 0
M  V30 43 H 3.2997 0.978512 1.96431 0
M  V30 44 H 0.915255 1.01368 1.18177 0
M  V30 45 H 1.53788 -0.722438 1.06151 0
M  V30 46 H 6.42976 -2.07498 1.75242 0
M  V30 47 H 7.26991 -1.58476 0.31849 0
M  V30 END ATOM
M  V30 BEGIN BOND
M  V30 1 1 1 2
M  V30 2 1 2 3
M  V30 3 1 3 4
M  V30 4 1 4 5
M  V30 5 1 5 6
M  V30 6 1 6 7
M  V30 7 1 7 8
M  V30 8 1 8 9
M  V30 9 1 9 10
M  V30 10 2 10 11
M  V30 11 1 10 12
M  V30 12 1 12 13
M  V30 13 1 13 14
M  V30 14 1 14 15
M  V30 15 1 15 16
M  V30 16 1 16 17
M  V30 17 1 15 18
M  V30 18 2 18 19
M  V30 19 2 18 20
M  V30 20 1 18 21
M  V30 21 1 8 3
M  V30 22 1 17 12
M  V30 23 1 1 22
M  V30 24 1 1 23
M  V30 25 1 2 24
M  V30 26 1 2 25
M  V30 27 1 3 26
M  V30 28 1 4 27
M  V30 29 1 4 28
M  V30 30 1 5 29
M  V30 31 1 5 30
M  V30 32 1 6 31
M  V30 33 1 6 32
M  V30 34 1 7 33
M  V30 35 1 7 34
M  V30 36 1 8 35
M  V30 37 1 9 36
M  V30 38 1 12 37
M  V30 39 1 13 38
M  V30 40 1 13 39
M  V30 41 1 14 40
M  V30 42 1 14 41
M  V30 43 1 16 42
M  V30 44 1 16 43
M  V30 45 1 17 44
M  V30 46 1 17 45
M  V30 47 1 21 46
M  V30 48 1 21 47
M  V30 END BOND
M  V30 END CTAB
M  END
