
     RDKit          3D

  0  0  0  0  0  0  0  0  0  0999 V3000
M  V30 BEGIN CTAB
M  V30 COUNTS 31 31 0 0 0
M  V30 BEGIN ATOM
M  V30 1 C 4.33586 -0.246419 -1.63656 0
M  V30 2 C 4.04447 0.519609 -0.365695 0
M  V30 3 N 2.65069 0.286361 -0.0165392 0
M  V30 4 C 1.72655 1.34118 0.0771926 0
M  V30 5 O 2.10405 2.50371 -0.151259 0
M  V30 6 C 0.331009 1.07314 0.442006 0
M  V30 7 S -0.439691 0.125656 -0.901378 0
M  V30 8 C -2.11294 -0.217205 -0.382137 0
M  V30 9 N -3.05691 0.6802 -0.704871 0
M  V30 10 C -4.35541 0.50425 -0.354733 0
M  V30 11 N -5.38469 1.42882 -0.677657 0
M  V30 12 C -4.64504 -0.647768 0.349437 0
M  V30 13 C -3.69559 -1.59738 0.700402 0
M  V30 14 N -2.4366 -1.32481 0.303894 0
M  V30 15 N -4.01501 -2.77271 1.42638 0
M  V30 16 C 4.96564 0.042848 0.737944 0
M  V30 17 H 5.26832 0.185942 -2.07303 0
M  V30 18 H 3.52499 -0.162274 -2.39184 0
M  V30 19 H 4.54793 -1.3056 -1.42723 0
M  V30 20 H 4.18967 1.61129 -0.47883 0
M  V30 21 H 2.30799 -0.694231 0.167585 0
M  V30 22 H -0.266312 2.03093 0.518188 0
M  V30 23 H 0.222128 0.501325 1.38402 0
M  V30 24 H -5.35001 1.9649 -1.55198 0
M  V30 25 H -6.1759 1.57198 -0.031027 0
M  V30 26 H -5.6764 -0.814018 0.644083 0
M  V30 27 H -3.72285 -2.83948 2.43641 0
M  V30 28 H -4.52046 -3.54543 0.987841 0
M  V30 29 H 5.94727 -0.172691 0.272213 0
M  V30 30 H 5.12355 0.846787 1.48184 0
M  V30 31 H 4.5637 -0.878918 1.21533 0
M  V30 END ATOM
M  V30 BEGIN BOND
M  V30 1 1 1 2
M  V30 2 1 2 3
M  V30 3 1 3 4
M  V30 4 2 4 5
M  V30 5 1 4 6
M  V30 6 1 6 7
M  V30 7 1 7 8
M  V30 8 2 8 9
M  V30 9 1 9 10
M  V30 10 1 10 11
M  V30 11 2 10 12
M  V30 12 1 12 13
M  V30 13 2 13 14
M  V30 14 1 13 15
M  V30 15 1 2 16
M  V30 16 1 14 8
M  V30 17 1 1 17
M  V30 18 1 1 18
M  V30 19 1 1 19
M  V30 20 1 2 20
M  V30 21 1 3 21
M  V30 22 1 6 22
M  V30 23 1 6 23
M  V30 24 1 11 24
M  V30 25 1 11 25
M  V30 26 1 12 26
M  V30 27 1 15 27
M  V30 28 1 15 28
M  V30 29 1 16 29
M  V30 30 1 16 30
M  V30 31 1 16 31
M  V30 END BOND
M  V30 END CTAB
M  END
