
     RDKit          3D

  0  0  0  0  0  0  0  0  0  0999 V3000
M  V30 BEGIN CTAB
M  V30 COUNTS 31 32 0 0 0
M  V30 BEGIN ATOM
M  V30 1 N -4.95712 0.686896 -0.657438 0
M  V30 2 C -3.55675 0.49537 -0.519314 0
M  V30 3 C -2.62962 1.39892 -0.996082 0
M  V30 4 C -1.27377 1.20288 -0.856542 0
M  V30 5 C -0.774181 0.0821919 -0.226964 0
M  V30 6 C -1.68373 -0.834212 0.257299 0
M  V30 7 C -3.02591 -0.623293 0.109875 0
M  V30 8 N -3.99773 -1.55645 0.601973 0
M  V30 9 N 0.625665 -0.105222 -0.0911934 0
M  V30 10 C 1.52368 0.862882 -0.604435 0
M  V30 11 C 2.96773 0.557865 -0.40254 0
M  V30 12 C 3.4717 -0.709067 -1.01735 0
M  V30 13 C 4.34959 -0.897397 0.224035 0
M  V30 14 C 3.36193 0.0255558 0.951413 0
M  V30 15 H -5.39846 1.62848 -0.619509 0
M  V30 16 H -5.57001 -0.143963 -0.802451 0
M  V30 17 H -3.03446 2.28656 -1.49496 0
M  V30 18 H -0.555109 1.91889 -1.23472 0
M  V30 19 H -1.33872 -1.73407 0.761516 0
M  V30 20 H -3.98926 -2.5007 0.166091 0
M  V30 21 H -4.65377 -1.27838 1.34568 0
M  V30 22 H 0.965591 -0.957335 0.386676 0
M  V30 23 H 1.35428 0.97078 -1.70539 0
M  V30 24 H 1.28566 1.84382 -0.160633 0
M  V30 25 H 3.58959 1.44291 -0.643997 0
M  V30 26 H 4.06339 -0.496467 -1.92065 0
M  V30 27 H 2.6703 -1.45137 -1.11031 0
M  V30 28 H 5.32555 -0.425129 0.0720781 0
M  V30 29 H 4.34438 -1.91302 0.639289 0
M  V30 30 H 2.5932 -0.493078 1.52472 0
M  V30 31 H 3.94635 0.71514 1.59137 0
M  V30 END ATOM
M  V30 BEGIN BOND
M  V30 1 1 1 2
M  V30 2 2 2 3
M  V30 3 1 3 4
M  V30 4 2 4 5
M  V30 5 1 5 6
M  V30 6 2 6 7
M  V30 7 1 7 8
M  V30 8 1 5 9
M  V30 9 1 9 10
M  V30 10 1 10 11
M  V30 11 1 11 12
M  V30 12 1 12 13
M  V30 13 1 13 14
M  V30 14 1 7 2
M  V30 15 1 14 11
M  V30 16 1 1 15
M  V30 17 1 1 16
M  V30 18 1 3 17
M  V30 19 1 4 18
M  V30 20 1 6 19
M  V30 21 1 8 20
M  V30 22 1 8 21
M  V30 23 1 9 22
M  V30 24 1 10 23
M  V30 25 1 10 24
M  V30 26 1 11 25
M  V30 27 1 12 26
M  V30 28 1 12 27
M  V30 29 1 13 28
M  V30 30 1 13 29
M  V30 31 1 14 30
M  V30 32 1 14 31
M  V30 END BOND
M  V30 END CTAB
M  END
