
     RDKit          3D

  0  0  0  0  0  0  0  0  0  0999 V3000
M  V30 BEGIN CTAB
M  V30 COUNTS 23 23 0 0 0
M  V30 BEGIN ATOM
M  V30 1 N 3.82543 1.17405 0.630627 0
M  V30 2 N 2.96388 0.157287 0.196168 0
M  V30 3 C 1.57644 0.347306 0.017313 0
M  V30 4 O 1.09305 1.46753 0.255354 0
M  V30 5 C 0.749084 -0.760912 -0.437429 0
M  V30 6 C -0.716604 -0.466234 -0.59007 0
M  V30 7 C -1.39465 -0.0281551 0.677535 0
M  V30 8 C -2.88098 0.25096 0.471021 0
M  V30 9 C -1.92886 1.31842 0.89277 0
M  V30 10 N -1.35194 -1.74735 -0.950828 0
M  V30 11 H 4.58695 0.753121 1.23481 0
M  V30 12 H 4.31599 1.52313 -0.220519 0
M  V30 13 H 3.42846 -0.775196 0.00842788 0
M  V30 14 H 0.841427 -1.57456 0.319883 0
M  V30 15 H 1.08418 -1.19042 -1.40844 0
M  V30 16 H -0.856358 0.262603 -1.42171 0
M  V30 17 H -1.19451 -0.682092 1.54965 0
M  V30 18 H -3.60248 -0.171899 1.20106 0
M  V30 19 H -3.27988 0.344481 -0.53856 0
M  V30 20 H -2.04451 1.6139 1.97733 0
M  V30 21 H -1.70615 2.17427 0.248428 0
M  V30 22 H -2.39649 -1.5933 -0.843255 0
M  V30 23 H -1.11148 -2.39692 -0.149222 0
M  V30 END ATOM
M  V30 BEGIN BOND
M  V30 1 1 1 2
M  V30 2 1 2 3
M  V30 3 2 3 4
M  V30 4 1 3 5
M  V30 5 1 5 6
M  V30 6 1 6 7
M  V30 7 1 7 8
M  V30 8 1 8 9
M  V30 9 1 6 10
M  V30 10 1 9 7
M  V30 11 1 1 11
M  V30 12 1 1 12
M  V30 13 1 2 13
M  V30 14 1 5 14
M  V30 15 1 5 15
M  V30 16 1 6 16
M  V30 17 1 7 17
M  V30 18 1 8 18
M  V30 19 1 8 19
M  V30 20 1 9 20
M  V30 21 1 9 21
M  V30 22 1 10 22
M  V30 23 1 10 23
M  V30 END BOND
M  V30 END CTAB
M  END
