
     RDKit          3D

  0  0  0  0  0  0  0  0  0  0999 V3000
M  V30 BEGIN CTAB
M  V30 COUNTS 58 59 0 0 0
M  V30 BEGIN ATOM
M  V30 1 C 0.0124783 4.42446 0.416067 0 CFG=2
M  V30 2 O -0.582916 5.65755 0.109639 0
M  V30 3 C 1.22527 4.80991 1.29888 0
M  V30 4 O 2.07306 5.67571 0.62519 0
M  V30 5 C 0.521745 3.80319 -0.904924 0 CFG=1
M  V30 6 O 1.52553 4.71462 -1.35125 0
M  V30 7 C 1.18643 2.46457 -0.660924 0 CFG=2
M  V30 8 O 2.10691 2.40201 -1.81268 0
M  V30 9 C 0.302155 1.3255 -1.02078 0
M  V30 10 C -1.11582 1.31295 -0.709505 0
M  V30 11 N -1.82384 0.3963 -1.00291 0
M  V30 12 N -2.59867 -0.590475 -1.31593 0
M  V30 13 C -3.5461 -1.1855 -0.444812 0
M  V30 14 C -3.35794 -2.4632 0.0201689 0
M  V30 15 C -4.27936 -3.04478 0.887289 0
M  V30 16 C -5.37561 -2.31058 1.26343 0
M  V30 17 C -5.56773 -1.01794 0.792921 0
M  V30 18 C -4.64247 -0.447732 -0.0709443 0
M  V30 19 S -6.57254 -2.97891 2.342 0
M  V30 20 N -7.87262 -3.59183 1.36075 0
M  V30 21 O -7.03766 -1.89877 3.26005 0
M  V30 22 O -5.94186 -4.12468 3.11225 0
M  V30 23 N 0.772647 0.307006 -1.60032 0
M  V30 24 N 2.02313 -0.0401869 -2.01906 0
M  V30 25 C 2.92705 -0.856647 -1.25459 0
M  V30 26 C 3.83338 -0.359419 -0.350184 0
M  V30 27 C 4.68962 -1.16168 0.374166 0
M  V30 28 C 4.66691 -2.53044 0.213472 0
M  V30 29 C 3.76656 -3.05502 -0.688922 0
M  V30 30 C 2.91623 -2.24281 -1.4075 0
M  V30 31 S 5.7558 -3.56987 1.13764 0
M  V30 32 N 7.19416 -3.75394 0.240203 0
M  V30 33 O 6.08737 -2.95362 2.45873 0
M  V30 34 O 5.10737 -4.89482 1.41509 0
M  V30 35 H -0.622339 3.80253 1.01429 0
M  V30 36 H -1.54779 5.54016 -0.00702476 0
M  V30 37 H 0.808632 5.34621 2.16672 0
M  V30 38 H 1.8131 3.92888 1.57483 0
M  V30 39 H 1.57073 6.50105 0.330955 0
M  V30 40 H -0.275145 3.77747 -1.62241 0
M  V30 41 H 1.59232 4.66424 -2.3438 0
M  V30 42 H 1.73833 2.39284 0.239439 0
M  V30 43 H 1.58601 2.59271 -2.60767 0
M  V30 44 H -1.48135 2.2336 -0.192938 0
M  V30 45 H -2.56912 -1.03608 -2.29115 0
M  V30 46 H -2.49441 -3.03852 -0.281758 0
M  V30 47 H -4.16895 -4.04052 1.2686 0
M  V30 48 H -6.40958 -0.412425 1.06175 0
M  V30 49 H -4.75385 0.567425 -0.465685 0
M  V30 50 H -7.53271 -3.7746 0.408015 0
M  V30 51 H -8.59631 -2.81645 1.26761 0
M  V30 52 H 2.36365 0.285789 -2.95417 0
M  V30 53 H 3.86391 0.730441 -0.210347 0
M  V30 54 H 5.40012 -0.767979 1.08188 0
M  V30 55 H 3.74867 -4.13334 -0.817216 0
M  V30 56 H 2.20688 -2.63674 -2.11612 0
M  V30 57 H 7.95538 -3.18301 0.661794 0
M  V30 58 H 7.42514 -4.74462 0.121679 0
M  V30 END ATOM
M  V30 BEGIN BOND
M  V30 1 1 1 2
M  V30 2 1 1 3
M  V30 3 1 3 4
M  V30 4 1 1 5
M  V30 5 1 5 6
M  V30 6 1 5 7
M  V30 7 1 7 8
M  V30 8 1 7 9
M  V30 9 1 9 10
M  V30 10 2 10 11 CFG=2
M  V30 11 1 11 12
M  V30 12 1 12 13
M  V30 13 2 13 14
M  V30 14 1 14 15
M  V30 15 2 15 16
M  V30 16 1 16 17
M  V30 17 2 17 18
M  V30 18 1 16 19
M  V30 19 1 19 20
M  V30 20 2 19 21
M  V30 21 2 19 22
M  V30 22 2 9 23 CFG=2
M  V30 23 1 23 24
M  V30 24 1 24 25
M  V30 25 2 25 26
M  V30 26 1 26 27
M  V30 27 2 27 28
M  V30 28 1 28 29
M  V30 29 2 29 30
M  V30 30 1 28 31
M  V30 31 1 31 32
M  V30 32 2 31 33
M  V30 33 2 31 34
M  V30 34 1 18 13
M  V30 35 1 30 25
M  V30 36 1 1 35 CFG=1
M  V30 37 1 2 36
M  V30 38 1 3 37
M  V30 39 1 3 38
M  V30 40 1 4 39
M  V30 41 1 5 40 CFG=3
M  V30 42 1 6 41
M  V30 43 1 7 42 CFG=1
M  V30 44 1 8 43
M  V30 45 1 10 44
M  V30 46 1 12 45
M  V30 47 1 14 46
M  V30 48 1 15 47
M  V30 49 1 17 48
M  V30 50 1 18 49
M  V30 51 1 20 50
M  V30 52 1 20 51
M  V30 53 1 24 52
M  V30 54 1 26 53
M  V30 55 1 27 54
M  V30 56 1 29 55
M  V30 57 1 30 56
M  V30 58 1 32 57
M  V30 59 1 32 58
M  V30 END BOND
M  V30 END CTAB
M  END
