
     RDKit          3D

  0  0  0  0  0  0  0  0  0  0999 V3000
M  V30 BEGIN CTAB
M  V30 COUNTS 19 19 0 0 0
M  V30 BEGIN ATOM
M  V30 1 N -0.185013 2.01439 0.105385 0
M  V30 2 C 0.549379 0.811883 0.0304702 0
M  V30 3 C -0.143914 -0.367747 0.234257 0
M  V30 4 C 0.578532 -1.54087 0.159998 0
M  V30 5 C 1.93233 -1.56527 -0.104126 0
M  V30 6 C 2.6206 -0.392728 -0.306519 0
M  V30 7 Cl 4.32702 -0.325402 -0.64507 0
M  V30 8 C 1.91736 0.788286 -0.236481 0
M  V30 9 S -1.8471 -0.372873 0.568591 0
M  V30 10 N -2.77632 0.337922 -0.688831 0
M  V30 11 O -2.17278 0.381558 1.84285 0
M  V30 12 O -2.29168 -1.79415 0.803133 0
M  V30 13 H 0.0911382 2.74274 0.794372 0
M  V30 14 H -1.00455 2.22291 -0.49954 0
M  V30 15 H 0.0823816 -2.50017 0.312456 0
M  V30 16 H 2.46876 -2.5202 -0.154443 0
M  V30 17 H 2.42704 1.74657 -0.391535 0
M  V30 18 H -3.6982 0.629211 -0.308288 0
M  V30 19 H -2.87499 -0.296058 -1.51668 0
M  V30 END ATOM
M  V30 BEGIN BOND
M  V30 1 1 1 2
M  V30 2 2 2 3
M  V30 3 1 3 4
M  V30 4 2 4 5
M  V30 5 1 5 6
M  V30 6 1 6 7
M  V30 7 2 6 8
M  V30 8 1 3 9
M  V30 9 1 9 10
M  V30 10 2 9 11
M  V30 11 2 9 12
M  V30 12 1 8 2
M  V30 13 1 1 13
M  V30 14 1 1 14
M  V30 15 1 4 15
M  V30 16 1 5 16
M  V30 17 1 8 17
M  V30 18 1 10 18
M  V30 19 1 10 19
M  V30 END BOND
M  V30 END CTAB
M  END
