
     RDKit          3D

  0  0  0  0  0  0  0  0  0  0999 V3000
M  V30 BEGIN CTAB
M  V30 COUNTS 38 43 0 0 0
M  V30 BEGIN ATOM
M  V30 1 N 4.67541 1.42529 -0.197044 0
M  V30 2 C 3.32696 1.00139 -0.181062 0
M  V30 3 C 2.33067 1.97494 -0.0569101 0
M  V30 4 C 1.01182 1.5755 -0.0399652 0
M  V30 5 C 0.70586 0.234447 -0.145037 0
M  V30 6 C 1.69812 -0.733053 -0.268499 0
M  V30 7 C 3.03737 -0.330409 -0.285965 0
M  V30 8 C 4.00414 -1.29401 -0.408095 0
M  V30 9 C 3.6769 -2.63124 -0.512003 0
M  V30 10 C 2.34071 -3.00261 -0.491925 0
M  V30 11 C 1.33662 -2.0551 -0.369735 0
M  V30 12 C 0.0442279 -2.47148 -0.355318 0
M  V30 13 O -0.299913 -3.67778 -0.447131 0
M  V30 14 C -0.985727 -1.55032 -0.234422 0
M  V30 15 C -2.3133 -1.96701 -0.218643 0
M  V30 16 C -3.3 -0.995593 -0.0950521 0
M  V30 17 N -4.65107 -1.44334 -0.0810663 0
M  V30 18 C -3.0059 0.349804 0.0108697 0
M  V30 19 C -4.02924 1.27117 0.131525 0
M  V30 20 C -3.69942 2.61282 0.235706 0
M  V30 21 C -2.37315 2.99705 0.217144 0
M  V30 22 C -1.34412 2.07598 0.096293 0
M  V30 23 C -0.0161387 2.4878 0.0800766 0
M  V30 24 O 0.246391 3.70085 0.175674 0
M  V30 25 C -1.68001 0.740963 -0.00707202 0
M  V30 26 C -0.68943 -0.208055 -0.128859 0
M  V30 27 H 4.91734 2.31559 -0.684677 0
M  V30 28 H 5.44524 0.894943 0.25366 0
M  V30 29 H 2.58277 3.00139 0.0228005 0
M  V30 30 H 5.05771 -1.02526 -0.426024 0
M  V30 31 H 4.46285 -3.35047 -0.605686 0
M  V30 32 H 2.04995 -4.0313 -0.570317 0
M  V30 33 H -2.57349 -3.00369 -0.298946 0
M  V30 34 H -5.24108 -1.31809 -0.931041 0
M  V30 35 H -5.01388 -1.88577 0.782498 0
M  V30 36 H -5.04678 0.910356 0.140016 0
M  V30 37 H -4.51273 3.34381 0.331488 0
M  V30 38 H -2.17567 4.06049 0.302241 0
M  V30 END ATOM
M  V30 BEGIN BOND
M  V30 1 1 1 2
M  V30 2 2 2 3
M  V30 3 1 3 4
M  V30 4 2 4 5
M  V30 5 1 5 6
M  V30 6 2 6 7
M  V30 7 1 7 8
M  V30 8 2 8 9
M  V30 9 1 9 10
M  V30 10 2 10 11
M  V30 11 1 11 12
M  V30 12 2 12 13
M  V30 13 1 12 14
M  V30 14 2 14 15
M  V30 15 1 15 16
M  V30 16 1 16 17
M  V30 17 2 16 18
M  V30 18 1 18 19
M  V30 19 2 19 20
M  V30 20 1 20 21
M  V30 21 2 21 22
M  V30 22 1 22 23
M  V30 23 2 23 24
M  V30 24 1 22 25
M  V30 25 2 25 26
M  V30 26 1 7 2
M  V30 27 1 26 14
M  V30 28 1 23 4
M  V30 29 1 26 5
M  V30 30 1 11 6
M  V30 31 1 25 18
M  V30 32 1 1 27
M  V30 33 1 1 28
M  V30 34 1 3 29
M  V30 35 1 8 30
M  V30 36 1 9 31
M  V30 37 1 10 32
M  V30 38 1 15 33
M  V30 39 1 17 34
M  V30 40 1 17 35
M  V30 41 1 19 36
M  V30 42 1 20 37
M  V30 43 1 21 38
M  V30 END BOND
M  V30 END CTAB
M  END
