
     RDKit          3D

  0  0  0  0  0  0  0  0  0  0999 V3000
M  V30 BEGIN CTAB
M  V30 COUNTS 20 21 0 0 0
M  V30 BEGIN ATOM
M  V30 1 N -1.70572 3.02858 -0.436513 0
M  V30 2 C -1.18655 1.69533 -0.326687 0
M  V30 3 N -1.99746 0.635757 -0.164223 0
M  V30 4 C -1.52547 -0.636424 -0.0579998 0
M  V30 5 N -2.10783 -1.83799 0.105505 0
M  V30 6 C -1.1836 -2.80587 0.151587 0
M  V30 7 N 0.0163909 -2.19514 0.0129317 0
M  V30 8 C -0.169044 -0.872957 -0.116213 0
M  V30 9 C 0.662945 0.204689 -0.281893 0
M  V30 10 N 0.134773 1.44932 -0.381736 0
M  V30 11 S 2.38206 -0.0434827 -0.361156 0
M  V30 12 O 2.74054 -1.35716 -0.994335 0
M  V30 13 O 2.99056 1.05041 -1.21875 0
M  V30 14 N 3.13791 0.0280732 1.17717 0
M  V30 15 H -1.7835 3.51689 -1.35291 0
M  V30 16 H -2.017 3.53218 0.419968 0
M  V30 17 H -3.13969 -1.9828 0.184302 0
M  V30 18 H -1.32469 -3.88739 0.275205 0
M  V30 19 H 3.41329 0.98006 1.4534 0
M  V30 20 H 2.66208 -0.502083 1.91234 0
M  V30 END ATOM
M  V30 BEGIN BOND
M  V30 1 1 1 2
M  V30 2 2 2 3
M  V30 3 1 3 4
M  V30 4 1 4 5
M  V30 5 1 5 6
M  V30 6 2 6 7
M  V30 7 1 7 8
M  V30 8 1 8 9
M  V30 9 2 9 10
M  V30 10 1 9 11
M  V30 11 2 11 12
M  V30 12 2 11 13
M  V30 13 1 11 14
M  V30 14 1 10 2
M  V30 15 2 8 4
M  V30 16 1 1 15
M  V30 17 1 1 16
M  V30 18 1 5 17
M  V30 19 1 6 18
M  V30 20 1 14 19
M  V30 21 1 14 20
M  V30 END BOND
M  V30 END CTAB
M  END
