
     RDKit          3D

  0  0  0  0  0  0  0  0  0  0999 V3000
M  V30 BEGIN CTAB
M  V30 COUNTS 35 36 0 0 0
M  V30 BEGIN ATOM
M  V30 1 C 4.36613 -2.46523 -0.70213 0
M  V30 2 C 4.73017 -1.19159 0.000796275 0
M  V30 3 O 3.80442 -0.150338 -0.229714 0
M  V30 4 C 2.472 -0.275657 0.129131 0
M  V30 5 O 2.13397 -1.35936 0.667491 0
M  V30 6 C 1.50633 0.798815 -0.106357 0
M  V30 7 C 1.89348 1.97723 -0.696402 0
M  V30 8 C 1.02011 3.02142 -0.940209 0
M  V30 9 N 1.42964 4.23015 -1.54819 0
M  V30 10 C -0.291425 2.85135 -0.567035 0
M  V30 11 C -0.728881 1.7097 0.0189044 0
M  V30 12 C 0.180839 0.682741 0.247055 0
M  V30 13 S -0.354255 -0.820468 1.00927 0
M  V30 14 C -2.09714 -0.797121 1.39878 0
M  V30 15 N -2.61074 -0.355382 2.56086 0
M  V30 16 N -3.94032 -0.478304 2.51958 0
M  V30 17 C -4.29808 -1.00258 1.3257 0
M  V30 18 N -3.14583 -1.18692 0.661075 0
M  V30 19 N -3.03898 -1.71059 -0.620245 0
M  V30 20 C -5.68094 -1.30885 0.853192 0
M  V30 21 H 5.10004 -2.71165 -1.51635 0
M  V30 22 H 4.392 -3.35388 -0.0230048 0
M  V30 23 H 3.3835 -2.38917 -1.19135 0
M  V30 24 H 5.73604 -0.876597 -0.335467 0
M  V30 25 H 4.81716 -1.40572 1.08617 0
M  V30 26 H 2.92632 2.10055 -0.985778 0
M  V30 27 H 1.26947 5.123 -1.0568 0
M  V30 28 H 1.88383 4.21603 -2.47415 0
M  V30 29 H -0.984249 3.67241 -0.757361 0
M  V30 30 H -1.76382 1.53728 0.329661 0
M  V30 31 H -2.51341 -2.60113 -0.733001 0
M  V30 32 H -3.45687 -1.25866 -1.47109 0
M  V30 33 H -5.69291 -2.15832 0.145324 0
M  V30 34 H -6.14741 -0.434487 0.361718 0
M  V30 35 H -6.3002 -1.62868 1.72475 0
M  V30 END ATOM
M  V30 BEGIN BOND
M  V30 1 1 1 2
M  V30 2 1 2 3
M  V30 3 1 3 4
M  V30 4 2 4 5
M  V30 5 1 4 6
M  V30 6 2 6 7
M  V30 7 1 7 8
M  V30 8 1 8 9
M  V30 9 2 8 10
M  V30 10 1 10 11
M  V30 11 2 11 12
M  V30 12 1 12 13
M  V30 13 1 13 14
M  V30 14 2 14 15
M  V30 15 1 15 16
M  V30 16 2 16 17
M  V30 17 1 17 18
M  V30 18 1 18 19
M  V30 19 1 17 20
M  V30 20 1 12 6
M  V30 21 1 18 14
M  V30 22 1 1 21
M  V30 23 1 1 22
M  V30 24 1 1 23
M  V30 25 1 2 24
M  V30 26 1 2 25
M  V30 27 1 7 26
M  V30 28 1 9 27
M  V30 29 1 9 28
M  V30 30 1 10 29
M  V30 31 1 11 30
M  V30 32 1 19 31
M  V30 33 1 19 32
M  V30 34 1 20 33
M  V30 35 1 20 34
M  V30 36 1 20 35
M  V30 END BOND
M  V30 END CTAB
M  END
