
     RDKit          3D

  0  0  0  0  0  0  0  0  0  0999 V3000
M  V30 BEGIN CTAB
M  V30 COUNTS 19 19 0 0 0
M  V30 BEGIN ATOM
M  V30 1 Br 2.49176 2.22122 1.48338 0
M  V30 2 C 1.77332 0.74747 0.499608 0
M  V30 3 C 2.60402 -0.262641 0.062439 0
M  V30 4 C 2.02254 -1.29728 -0.642038 0
M  V30 5 C 0.665811 -1.31177 -0.893584 0
M  V30 6 C -0.161748 -0.292635 -0.450615 0
M  V30 7 C 0.399623 0.740724 0.249516 0
M  V30 8 N -0.429109 1.81566 0.724674 0
M  V30 9 S -1.88297 -0.302467 -0.764795 0
M  V30 10 O -2.24213 -1.54329 -1.51584 0
M  V30 11 O -2.20822 0.942717 -1.52022 0
M  V30 12 N -2.73729 -0.297998 0.714398 0
M  V30 13 H 3.6632 -0.208424 0.28369 0
M  V30 14 H 2.67206 -2.11005 -0.997178 0
M  V30 15 H 0.19454 -2.10688 -1.43933 0
M  V30 16 H -0.582797 1.87449 1.75343 0
M  V30 17 H -0.852762 2.50397 0.0384073 0
M  V30 18 H -2.22905 0.119735 1.50282 0
M  V30 19 H -3.1608 -1.23254 0.911229 0
M  V30 END ATOM
M  V30 BEGIN BOND
M  V30 1 1 1 2
M  V30 2 2 2 3
M  V30 3 1 3 4
M  V30 4 2 4 5
M  V30 5 1 5 6
M  V30 6 2 6 7
M  V30 7 1 7 8
M  V30 8 1 6 9
M  V30 9 2 9 10
M  V30 10 2 9 11
M  V30 11 1 9 12
M  V30 12 1 7 2
M  V30 13 1 3 13
M  V30 14 1 4 14
M  V30 15 1 5 15
M  V30 16 1 8 16
M  V30 17 1 8 17
M  V30 18 1 12 18
M  V30 19 1 12 19
M  V30 END BOND
M  V30 END CTAB
M  END
