
     RDKit          3D

  0  0  0  0  0  0  0  0  0  0999 V3000
M  V30 BEGIN CTAB
M  V30 COUNTS 39 40 0 0 0
M  V30 BEGIN ATOM
M  V30 1 C 0.0245554 -0.219937 1.27473 0
M  V30 2 C -0.699872 0.670904 0.348399 0
M  V30 3 C -2.11135 0.190763 0.0429357 0
M  V30 4 C -2.96109 0.0933757 1.28131 0
M  V30 5 C -4.41738 0.130301 0.804119 0
M  V30 6 C -4.5675 -0.532683 -0.540835 0
M  V30 7 C -3.54582 -1.63321 -0.762514 0
M  V30 8 C -2.14008 -1.05173 -0.803316 0
M  V30 9 C -0.00726918 1.08434 -0.894817 0
M  V30 10 S 1.49814 1.98479 -0.763277 0
M  V30 11 C 2.94463 1.13078 -0.271867 0
M  V30 12 N 4.07116 1.88665 -0.135604 0
M  V30 13 C 5.25069 1.36254 0.205338 0
M  V30 14 N 6.42864 2.16549 0.346207 0
M  V30 15 N 5.37118 0.0645795 0.427711 0
M  V30 16 C 4.27015 -0.714481 0.300695 0
M  V30 17 N 3.09837 -0.162058 -0.0427322 0
M  V30 18 N 4.41838 -2.1047 0.54259 0
M  V30 19 H -0.638878 -0.611592 2.10051 0
M  V30 20 H 0.418373 -1.11861 0.760945 0
M  V30 21 H 0.849279 0.272953 1.82125 0
M  V30 22 H -0.878435 1.64022 0.926 0
M  V30 23 H -2.56691 1.00913 -0.586862 0
M  V30 24 H -2.76759 0.977769 1.90198 0
M  V30 25 H -2.82074 -0.865833 1.8211 0
M  V30 26 H -5.00877 -0.37205 1.59601 0
M  V30 27 H -4.75207 1.18702 0.770639 0
M  V30 28 H -5.5677 -1.03119 -0.572744 0
M  V30 29 H -4.50845 0.159975 -1.38122 0
M  V30 30 H -3.63834 -2.44156 -0.0146167 0
M  V30 31 H -3.76154 -2.08348 -1.74435 0
M  V30 32 H -1.9232 -0.811103 -1.86111 0
M  V30 33 H -1.44024 -1.8339 -0.486304 0
M  V30 34 H 0.136366 0.186292 -1.59019 0
M  V30 35 H -0.746926 1.7112 -1.48207 0
M  V30 36 H 7.30802 1.86533 -0.114804 0
M  V30 37 H 6.4299 3.03788 0.895054 0
M  V30 38 H 4.2914 -2.51272 1.48432 0
M  V30 39 H 4.66091 -2.71142 -0.25808 0
M  V30 END ATOM
M  V30 BEGIN BOND
M  V30 1 1 1 2
M  V30 2 1 2 3
M  V30 3 1 3 4
M  V30 4 1 4 5
M  V30 5 1 5 6
M  V30 6 1 6 7
M  V30 7 1 7 8
M  V30 8 1 2 9
M  V30 9 1 9 10
M  V30 10 1 10 11
M  V30 11 2 11 12
M  V30 12 1 12 13
M  V30 13 1 13 14
M  V30 14 2 13 15
M  V30 15 1 15 16
M  V30 16 2 16 17
M  V30 17 1 16 18
M  V30 18 1 8 3
M  V30 19 1 17 11
M  V30 20 1 1 19
M  V30 21 1 1 20
M  V30 22 1 1 21
M  V30 23 1 2 22
M  V30 24 1 3 23
M  V30 25 1 4 24
M  V30 26 1 4 25
M  V30 27 1 5 26
M  V30 28 1 5 27
M  V30 29 1 6 28
M  V30 30 1 6 29
M  V30 31 1 7 30
M  V30 32 1 7 31
M  V30 33 1 8 32
M  V30 34 1 8 33
M  V30 35 1 9 34
M  V30 36 1 9 35
M  V30 37 1 14 36
M  V30 38 1 14 37
M  V30 39 1 18 38
M  V30 40 1 18 39
M  V30 END BOND
M  V30 END CTAB
M  END
