
     RDKit          3D

  0  0  0  0  0  0  0  0  0  0999 V3000
M  V30 BEGIN CTAB
M  V30 COUNTS 25 25 0 0 0
M  V30 BEGIN ATOM
M  V30 1 N 3.26014 0.265211 0.101338 0
M  V30 2 C 1.90312 0.111937 0.560872 0
M  V30 3 C 0.844389 0.458824 -0.514848 0
M  V30 4 C -0.408297 -0.197541 -0.148114 0
M  V30 5 C -1.54094 0.55976 -0.0296478 0
M  V30 6 C -1.49053 2.00685 -0.223089 0
M  V30 7 C -2.75102 -0.116858 0.287868 0
M  V30 8 C -2.7616 -1.45312 0.46559 0
M  V30 9 N -1.65094 -2.19598 0.348173 0
M  V30 10 C -0.50793 -1.53932 0.0353551 0
M  V30 11 N 0.5725 -2.40423 -0.299142 0
M  V30 12 O 0.889709 1.71747 -0.984415 0
M  V30 13 H 3.84622 0.871869 0.761315 0
M  V30 14 H 3.74167 -0.682749 0.00629543 0
M  V30 15 H 1.73248 -0.829245 1.00851 0
M  V30 16 H 1.67697 0.942248 1.34461 0
M  V30 17 H 1.25995 -0.209495 -1.39679 0
M  V30 18 H -2.51851 2.45752 0.0392069 0
M  V30 19 H -1.37004 2.28974 -1.29833 0
M  V30 20 H -0.815956 2.55712 0.460159 0
M  V30 21 H -3.62545 0.487717 0.379637 0
M  V30 22 H -3.72461 -1.90896 0.705919 0
M  V30 23 H 1.31056 -2.829 0.256723 0
M  V30 24 H 0.595402 -2.68953 -1.34203 0
M  V30 25 H 1.53272 2.32976 -0.525156 0
M  V30 END ATOM
M  V30 BEGIN BOND
M  V30 1 1 1 2
M  V30 2 1 2 3
M  V30 3 1 3 4
M  V30 4 2 4 5
M  V30 5 1 5 6
M  V30 6 1 5 7
M  V30 7 2 7 8
M  V30 8 1 8 9
M  V30 9 2 9 10
M  V30 10 1 10 11
M  V30 11 1 3 12
M  V30 12 1 10 4
M  V30 13 1 1 13
M  V30 14 1 1 14
M  V30 15 1 2 15
M  V30 16 1 2 16
M  V30 17 1 3 17
M  V30 18 1 6 18
M  V30 19 1 6 19
M  V30 20 1 6 20
M  V30 21 1 7 21
M  V30 22 1 8 22
M  V30 23 1 11 23
M  V30 24 1 11 24
M  V30 25 1 12 25
M  V30 END BOND
M  V30 END CTAB
M  END
