
     RDKit          3D

  0  0  0  0  0  0  0  0  0  0999 V3000
M  V30 BEGIN CTAB
M  V30 COUNTS 40 42 0 0 0
M  V30 BEGIN ATOM
M  V30 1 C 3.15927 2.92322 -0.280322 0
M  V30 2 N 2.61591 1.56147 -0.351102 0
M  V30 3 C 3.46557 0.52181 -0.583272 0
M  V30 4 O 4.70846 0.718137 -0.824372 0
M  V30 5 N 3.05225 -0.749667 -0.583716 0
M  V30 6 C 3.9637 -1.80676 -0.939939 0
M  V30 7 C 1.73101 -0.948999 -0.329653 0
M  V30 8 C 0.836656 0.103666 -0.0939298 0
M  V30 9 C 1.30788 1.39119 -0.107927 0
M  V30 10 O 0.566445 2.3753 0.0954593 0
M  V30 11 C -0.490067 -0.173262 0.16676 0
M  V30 12 C -0.905138 -1.4919 0.21617 0
M  V30 13 C -2.3394 -1.76272 0.312222 0
M  V30 14 N -2.88603 -2.34471 1.53722 0
M  V30 15 C -0.00257998 -2.48483 0.00571622 0
M  V30 16 N -0.295464 -3.8685 0.0194638 0
M  V30 17 N 1.30094 -2.19795 -0.275237 0
M  V30 18 C -1.50664 0.873765 0.311481 0
M  V30 19 C -1.97828 1.50733 1.38511 0
M  V30 20 Br -1.22707 1.09173 3.10485 0
M  V30 21 C -2.99176 2.42541 1.3438 0
M  V30 22 C -3.55669 2.70092 0.121807 0
M  V30 23 F -4.55307 3.57466 0.0283423 0
M  V30 24 C -3.12574 2.08871 -1.04421 0
M  V30 25 C -2.10818 1.18731 -0.951148 0
M  V30 26 H 3.79513 3.13591 -1.13802 0
M  V30 27 H 3.69094 3.06114 0.710262 0
M  V30 28 H 2.35672 3.65703 -0.265625 0
M  V30 29 H 3.42482 -2.73591 -1.30282 0
M  V30 30 H 4.57989 -1.49703 -1.85333 0
M  V30 31 H 4.61311 -2.10426 -0.101897 0
M  V30 32 H -3.04039 -1.19404 -0.271038 0
M  V30 33 H -2.42612 -2.81572 -0.356215 0
M  V30 34 H -3.89942 -1.92101 1.56337 0
M  V30 35 H -2.40058 -1.89985 2.377 0
M  V30 36 H -0.0361564 -4.48409 0.795419 0
M  V30 37 H -0.79789 -4.28395 -0.814138 0
M  V30 38 H -3.33326 2.91914 2.23748 0
M  V30 39 H -3.5387 2.27527 -2.02724 0
M  V30 40 H -1.73005 0.672057 -1.8368 0
M  V30 END ATOM
M  V30 BEGIN BOND
M  V30 1 1 1 2
M  V30 2 1 2 3
M  V30 3 2 3 4
M  V30 4 1 3 5
M  V30 5 1 5 6
M  V30 6 1 5 7
M  V30 7 2 7 8
M  V30 8 1 8 9
M  V30 9 2 9 10
M  V30 10 1 8 11
M  V30 11 2 11 12
M  V30 12 1 12 13
M  V30 13 1 13 14
M  V30 14 1 12 15
M  V30 15 1 15 16
M  V30 16 2 15 17
M  V30 17 1 11 18
M  V30 18 2 18 19
M  V30 19 1 19 20
M  V30 20 1 19 21
M  V30 21 2 21 22
M  V30 22 1 22 23
M  V30 23 1 22 24
M  V30 24 2 24 25
M  V30 25 1 9 2
M  V30 26 1 25 18
M  V30 27 1 17 7
M  V30 28 1 1 26
M  V30 29 1 1 27
M  V30 30 1 1 28
M  V30 31 1 6 29
M  V30 32 1 6 30
M  V30 33 1 6 31
M  V30 34 1 13 32
M  V30 35 1 13 33
M  V30 36 1 14 34
M  V30 37 1 14 35
M  V30 38 1 16 36
M  V30 39 1 16 37
M  V30 40 1 21 38
M  V30 41 1 24 39
M  V30 42 1 25 40
M  V30 END BOND
M  V30 END CTAB
M  END
