
     RDKit          3D

  0  0  0  0  0  0  0  0  0  0999 V3000
M  V30 BEGIN CTAB
M  V30 COUNTS 21 20 0 0 0
M  V30 BEGIN ATOM
M  V30 1 N 2.15297 1.12752 0.170873 0
M  V30 2 C 1.72812 -0.165016 -0.233902 0
M  V30 3 C 0.381963 -0.459738 0.377942 0 CFG=1
M  V30 4 C -0.688238 0.505285 -0.0183654 0
M  V30 5 C -1.98706 0.107762 0.654864 0
M  V30 6 C -0.970564 0.585388 -1.47889 0
M  V30 7 N 0.0538691 -1.8275 0.153262 0
M  V30 8 H 2.37023 1.19908 1.11332 0
M  V30 9 H 2.64449 1.68693 -0.457451 0
M  V30 10 H 2.47877 -0.872422 0.179725 0
M  V30 11 H 1.74912 -0.292928 -1.32332 0
M  V30 12 H 0.510122 -0.341518 1.4854 0
M  V30 13 H -0.452082 1.52655 0.345288 0
M  V30 14 H -2.01769 0.381536 1.71504 0
M  V30 15 H -2.82954 0.618576 0.136379 0
M  V30 16 H -2.16017 -0.98534 0.49385 0
M  V30 17 H -1.90041 1.19381 -1.59354 0
M  V30 18 H -1.22381 -0.417601 -1.88531 0
M  V30 19 H -0.197063 1.11138 -2.06464 0
M  V30 20 H -0.252595 -2.36401 0.957926 0
M  V30 21 H 0.60957 -2.31775 -0.553348 0
M  V30 END ATOM
M  V30 BEGIN BOND
M  V30 1 1 1 2
M  V30 2 1 2 3
M  V30 3 1 3 4
M  V30 4 1 4 5
M  V30 5 1 4 6
M  V30 6 1 3 7
M  V30 7 1 1 8
M  V30 8 1 1 9
M  V30 9 1 2 10
M  V30 10 1 2 11
M  V30 11 1 3 12 CFG=1
M  V30 12 1 4 13
M  V30 13 1 5 14
M  V30 14 1 5 15
M  V30 15 1 5 16
M  V30 16 1 6 17
M  V30 17 1 6 18
M  V30 18 1 6 19
M  V30 19 1 7 20
M  V30 20 1 7 21
M  V30 END BOND
M  V30 END CTAB
M  END
