
     RDKit          3D

  0  0  0  0  0  0  0  0  0  0999 V3000
M  V30 BEGIN CTAB
M  V30 COUNTS 34 35 0 0 0
M  V30 BEGIN ATOM
M  V30 1 N 4.29156 0.622545 -1.03123 0
M  V30 2 N 2.95873 0.467229 -1.4169 0
M  V30 3 P 2.14786 -0.737993 -0.416466 0
M  V30 4 O 2.39453 -2.07455 -1.12315 0
M  V30 5 N 2.86703 -0.871558 1.1558 0
M  V30 6 N 3.55225 -2.08041 1.34241 0
M  V30 7 O 0.463965 -0.460129 -0.336568 0
M  V30 8 C -0.00215462 0.689796 0.234377 0
M  V30 9 C 0.868518 1.63289 0.749199 0
M  V30 10 C 0.389156 2.78985 1.32361 0
M  V30 11 C -0.974849 2.99813 1.37982 0
M  V30 12 C -1.8319 2.04199 0.858782 0
M  V30 13 C -1.38292 0.875758 0.278463 0
M  V30 14 C -2.26278 -0.144514 -0.278562 0
M  V30 15 C -3.35183 -0.485186 0.532335 0
M  V30 16 C -4.26366 -1.4354 0.125028 0
M  V30 17 C -4.09017 -2.04543 -1.08927 0
M  V30 18 C -3.01907 -1.70462 -1.87749 0
M  V30 19 C -2.08392 -0.746235 -1.48618 0
M  V30 20 H 4.90193 0.932267 -1.80787 0
M  V30 21 H 4.33435 1.21728 -0.188512 0
M  V30 22 H 2.96294 0.179399 -2.42029 0
M  V30 23 H 2.17907 -0.793579 1.93669 0
M  V30 24 H 4.57167 -1.99394 1.11688 0
M  V30 25 H 3.13375 -2.81594 0.730698 0
M  V30 26 H 1.95552 1.50947 0.72619 0
M  V30 27 H 1.10184 3.52072 1.72399 0
M  V30 28 H -1.32236 3.91212 1.8348 0
M  V30 29 H -2.91471 2.21009 0.904822 0
M  V30 30 H -3.51417 -0.020083 1.4959 0
M  V30 31 H -5.12153 -1.71865 0.739442 0
M  V30 32 H -4.81127 -2.80494 -1.42447 0
M  V30 33 H -2.8784 -2.19113 -2.84882 0
M  V30 34 H -1.24897 -0.475247 -2.09496 0
M  V30 END ATOM
M  V30 BEGIN BOND
M  V30 1 1 1 2
M  V30 2 1 2 3
M  V30 3 2 3 4
M  V30 4 1 3 5
M  V30 5 1 5 6
M  V30 6 1 3 7
M  V30 7 1 7 8
M  V30 8 2 8 9
M  V30 9 1 9 10
M  V30 10 2 10 11
M  V30 11 1 11 12
M  V30 12 2 12 13
M  V30 13 1 13 14
M  V30 14 2 14 15
M  V30 15 1 15 16
M  V30 16 2 16 17
M  V30 17 1 17 18
M  V30 18 2 18 19
M  V30 19 1 13 8
M  V30 20 1 19 14
M  V30 21 1 1 20
M  V30 22 1 1 21
M  V30 23 1 2 22
M  V30 24 1 5 23
M  V30 25 1 6 24
M  V30 26 1 6 25
M  V30 27 1 9 26
M  V30 28 1 10 27
M  V30 29 1 11 28
M  V30 30 1 12 29
M  V30 31 1 15 30
M  V30 32 1 16 31
M  V30 33 1 17 32
M  V30 34 1 18 33
M  V30 35 1 19 34
M  V30 END BOND
M  V30 END CTAB
M  END
