
     RDKit          3D

  0  0  0  0  0  0  0  0  0  0999 V3000
M  V30 BEGIN CTAB
M  V30 COUNTS 22 22 0 0 0
M  V30 BEGIN ATOM
M  V30 1 N -3.38285 -0.122407 0.198057 0
M  V30 2 C -1.95951 -0.309387 0.144286 0
M  V30 3 C -1.36354 -1.54825 0.213817 0
M  V30 4 C 0.00469837 -1.66394 0.135992 0
M  V30 5 C 0.818306 -0.558743 -0.0123282 0
M  V30 6 C 0.198145 0.654745 -0.0770493 0
M  V30 7 C -1.18165 0.820483 -0.00222572 0
M  V30 8 N -1.72166 2.14402 -0.0664312 0
M  V30 9 C 2.26108 -0.789535 -0.0967605 0
M  V30 10 C 3.1073 0.443132 -0.159546 0
M  V30 11 F 2.95946 1.25878 0.953642 0
M  V30 12 F 2.95026 1.13911 -1.34395 0
M  V30 13 F 4.43364 0.023139 -0.120891 0
M  V30 14 F 2.51197 -1.48936 -1.28635 0
M  V30 15 F 2.71545 -1.56745 0.956776 0
M  V30 16 H -3.86069 -0.0436818 -0.706816 0
M  V30 17 H -3.81672 -0.0875708 1.13184 0
M  V30 18 H -2.02194 -2.40572 0.330926 0
M  V30 19 H 0.408479 -2.67851 0.1934 0
M  V30 20 H 0.779721 1.55057 -0.19476 0
M  V30 21 H -2.49717 2.34098 -0.738419 0
M  V30 22 H -1.34279 2.8896 0.546796 0
M  V30 END ATOM
M  V30 BEGIN BOND
M  V30 1 1 1 2
M  V30 2 2 2 3
M  V30 3 1 3 4
M  V30 4 2 4 5
M  V30 5 1 5 6
M  V30 6 2 6 7
M  V30 7 1 7 8
M  V30 8 1 5 9
M  V30 9 1 9 10
M  V30 10 1 10 11
M  V30 11 1 10 12
M  V30 12 1 10 13
M  V30 13 1 9 14
M  V30 14 1 9 15
M  V30 15 1 7 2
M  V30 16 1 1 16
M  V30 17 1 1 17
M  V30 18 1 3 18
M  V30 19 1 4 19
M  V30 20 1 6 20
M  V30 21 1 8 21
M  V30 22 1 8 22
M  V30 END BOND
M  V30 END CTAB
M  END
