
     RDKit          3D

  0  0  0  0  0  0  0  0  0  0999 V3000
M  V30 BEGIN CTAB
M  V30 COUNTS 43 44 0 0 0
M  V30 BEGIN ATOM
M  V30 1 N 0.396808 -0.0441008 4.07288 0
M  V30 2 C -0.297436 -0.309188 2.83774 0
M  V30 3 N -1.55081 -0.774824 2.82975 0
M  V30 4 C -2.25606 -1.04289 1.69457 0
M  V30 5 N -3.58236 -1.54443 1.79554 0
M  V30 6 C -1.64877 -0.823417 0.49294 0
M  V30 7 C -2.33972 -1.09243 -0.774323 0
M  V30 8 C -3.36155 -0.0669712 -1.09616 0
M  V30 9 C -3.0015 1.20447 -1.50086 0
M  V30 10 C -3.93503 2.18902 -1.83227 0
M  V30 11 C -5.27373 1.86283 -1.74708 0
M  V30 12 C -5.69371 0.611321 -1.35009 0
M  V30 13 C -4.72863 -0.313963 -1.03768 0
M  V30 14 C -0.345522 -0.340033 0.488477 0
M  V30 15 O 0.248609 -0.128179 -0.739601 0
M  V30 16 C 1.53866 0.347254 -0.969257 0
M  V30 17 C 2.6421 -0.49109 -0.407574 0
M  V30 18 O 3.86684 0.122566 -0.725275 0
M  V30 19 C 4.93641 -0.623751 -0.22198 0
M  V30 20 P 6.49188 0.199197 -0.653558 0
M  V30 21 O 7.68505 -0.164958 0.514872 0
M  V30 22 O 6.30696 1.87444 -0.744149 0
M  V30 23 O 6.9648 -0.309473 -1.99325 0
M  V30 24 N 0.291809 -0.0969325 1.65177 0
M  V30 25 H 1.42574 -0.211798 4.1775 0
M  V30 26 H -0.10085 0.32602 4.91131 0
M  V30 27 H -4.29721 -1.0315 2.35676 0
M  V30 28 H -3.89905 -2.42279 1.32865 0
M  V30 29 H -1.61132 -1.142 -1.63202 0
M  V30 30 H -2.88694 -2.06782 -0.761756 0
M  V30 31 H -1.958 1.47182 -1.57257 0
M  V30 32 H -3.61403 3.17638 -2.14606 0
M  V30 33 H -6.03194 2.61155 -1.99965 0
M  V30 34 H -6.75672 0.430158 -1.30784 0
M  V30 35 H -5.07405 -1.28319 -0.746748 0
M  V30 36 H 1.68143 0.392971 -2.07483 0
M  V30 37 H 1.64309 1.38548 -0.550954 0
M  V30 38 H 2.61573 -0.640456 0.674287 0
M  V30 39 H 2.69261 -1.49938 -0.872593 0
M  V30 40 H 4.85776 -0.678038 0.879724 0
M  V30 41 H 4.93983 -1.63994 -0.691512 0
M  V30 42 H 7.55369 0.496744 1.24296 0
M  V30 43 H 5.46512 2.0813 -1.22263 0
M  V30 END ATOM
M  V30 BEGIN BOND
M  V30 1 1 1 2
M  V30 2 2 2 3
M  V30 3 1 3 4
M  V30 4 1 4 5
M  V30 5 2 4 6
M  V30 6 1 6 7
M  V30 7 1 7 8
M  V30 8 2 8 9
M  V30 9 1 9 10
M  V30 10 2 10 11
M  V30 11 1 11 12
M  V30 12 2 12 13
M  V30 13 1 6 14
M  V30 14 1 14 15
M  V30 15 1 15 16
M  V30 16 1 16 17
M  V30 17 1 17 18
M  V30 18 1 18 19
M  V30 19 1 19 20
M  V30 20 1 20 21
M  V30 21 1 20 22
M  V30 22 2 20 23
M  V30 23 2 14 24
M  V30 24 1 24 2
M  V30 25 1 13 8
M  V30 26 1 1 25
M  V30 27 1 1 26
M  V30 28 1 5 27
M  V30 29 1 5 28
M  V30 30 1 7 29
M  V30 31 1 7 30
M  V30 32 1 9 31
M  V30 33 1 10 32
M  V30 34 1 11 33
M  V30 35 1 12 34
M  V30 36 1 13 35
M  V30 37 1 16 36
M  V30 38 1 16 37
M  V30 39 1 17 38
M  V30 40 1 17 39
M  V30 41 1 19 40
M  V30 42 1 19 41
M  V30 43 1 21 42
M  V30 44 1 22 43
M  V30 END BOND
M  V30 END CTAB
M  END
