
     RDKit          3D

  0  0  0  0  0  0  0  0  0  0999 V3000
M  V30 BEGIN CTAB
M  V30 COUNTS 18 19 0 0 0
M  V30 BEGIN ATOM
M  V30 1 N 3.79614 -0.445389 -0.177722 0
M  V30 2 C 2.38119 -0.330452 -0.106449 0
M  V30 3 N 1.48294 -1.31276 0.0793053 0
M  V30 4 C 0.242895 -0.814606 0.088877 0
M  V30 5 C 0.359451 0.543288 -0.0990426 0
M  V30 6 N 1.66976 0.809164 -0.214635 0
M  V30 7 C -0.780976 1.31923 -0.132541 0
M  V30 8 S -0.621353 2.9359 -0.357511 0
M  V30 9 N -2.01603 0.783121 0.0144335 0
M  V30 10 C -2.11664 -0.545845 0.197529 0
M  V30 11 N -3.42092 -1.12287 0.354206 0
M  V30 12 N -1.00287 -1.29769 0.22945 0
M  V30 13 H 4.38074 -0.16584 0.61655 0
M  V30 14 H 4.21142 -0.813308 -1.04036 0
M  V30 15 H 2.08347 1.74805 -0.364949 0
M  V30 16 H -2.88742 1.3676 -0.0100567 0
M  V30 17 H -3.71838 -1.29942 1.3556 0
M  V30 18 H -4.04341 -1.35816 -0.432679 0
M  V30 END ATOM
M  V30 BEGIN BOND
M  V30 1 1 1 2
M  V30 2 2 2 3
M  V30 3 1 3 4
M  V30 4 2 4 5
M  V30 5 1 5 6
M  V30 6 1 5 7
M  V30 7 2 7 8
M  V30 8 1 7 9
M  V30 9 1 9 10
M  V30 10 1 10 11
M  V30 11 2 10 12
M  V30 12 1 6 2
M  V30 13 1 12 4
M  V30 14 1 1 13
M  V30 15 1 1 14
M  V30 16 1 6 15
M  V30 17 1 9 16
M  V30 18 1 11 17
M  V30 19 1 11 18
M  V30 END BOND
M  V30 END CTAB
M  END
