
     RDKit          3D

  0  0  0  0  0  0  0  0  0  0999 V3000
M  V30 BEGIN CTAB
M  V30 COUNTS 74 78 0 0 0
M  V30 BEGIN ATOM
M  V30 1 C 0.450565 1.97975 2.49818 0
M  V30 2 C -0.337036 0.669241 2.38976 0
M  V30 3 C -0.858044 0.585364 0.98916 0 CFG=1
M  V30 4 C 0.323096 0.595428 0.0363023 0
M  V30 5 N 1.0121 -0.706985 0.0585149 0
M  V30 6 C 0.179218 -1.85682 0.138758 0
M  V30 7 C -1.27158 -1.45499 -0.154606 0
M  V30 8 N -1.77769 -0.456372 0.720464 0
M  V30 9 C -3.06976 -0.0654547 0.290728 0
M  V30 10 C -3.84463 0.735258 1.31323 0
M  V30 11 C -5.32428 0.603201 0.904554 0
M  V30 12 N -5.54741 0.653192 -0.485528 0
M  V30 13 C -4.47721 0.818375 -1.4774 0
M  V30 14 C -3.09763 0.795397 -0.953264 0
M  V30 15 C -6.83405 0.54695 -1.05975 0
M  V30 16 O -6.79217 0.625279 -2.36821 0
M  V30 17 C -8.14317 0.375741 -0.53249 0
M  V30 18 C -9.22489 0.320586 -1.45222 0
M  V30 19 N -8.96418 0.439646 -2.84295 0
M  V30 20 N -10.4732 0.160695 -1.01164 0
M  V30 21 C -10.82 0.0410824 0.275052 0
M  V30 22 Cl -12.4917 -0.1666 0.776725 0
M  V30 23 C -9.80911 0.0897362 1.18839 0
M  V30 24 C -8.46948 0.255314 0.791936 0
M  V30 25 C 2.42036 -0.662649 0.000512287 0
M  V30 26 N 3.17163 -1.16636 1.00218 0
M  V30 27 C 4.52284 -1.13671 0.992031 0
M  V30 28 N 5.30385 -1.66524 2.04026 0
M  V30 29 C 5.19272 -0.575776 -0.0709036 0
M  V30 30 N 4.47581 -0.0632439 -1.08846 0
M  V30 31 C 3.13272 -0.103992 -1.05701 0
M  V30 32 Cl 2.20531 0.555308 -2.36932 0
M  V30 33 C 6.64894 -0.512477 -0.127307 0
M  V30 34 N 7.48518 -0.982462 0.815788 0
M  V30 35 N 8.7387 -0.764095 0.45081 0
M  V30 36 C 8.69784 -0.14678 -0.738973 0
M  V30 37 N 9.81715 0.276691 -1.5042 0
M  V30 38 C 11.1803 0.107765 -1.13721 0
M  V30 39 C 11.5439 -1.33769 -1.07433 0
M  V30 40 O 12.8928 -1.42574 -0.711738 0
M  V30 41 O 7.4192 -0.0141602 -1.05195 0
M  V30 42 H -0.0491256 2.7293 1.84454 0
M  V30 43 H 0.362279 2.38971 3.54255 0
M  V30 44 H 1.51535 1.85255 2.30185 0
M  V30 45 H 0.302626 -0.194229 2.66613 0
M  V30 46 H -1.11714 0.734967 3.1628 0
M  V30 47 H -1.39414 1.56063 0.791967 0
M  V30 48 H 0.994263 1.42699 0.231857 0
M  V30 49 H -0.0938898 0.693642 -0.986099 0
M  V30 50 H 0.26839 -2.33542 1.12742 0
M  V30 51 H 0.408855 -2.59267 -0.692911 0
M  V30 52 H -1.27057 -1.09455 -1.19754 0
M  V30 53 H -1.87039 -2.38376 -0.0298317 0
M  V30 54 H -3.66319 -0.972283 0.0707853 0
M  V30 55 H -3.60266 1.80844 1.18621 0
M  V30 56 H -3.7082 0.351592 2.33464 0
M  V30 57 H -5.82905 1.42094 1.46919 0
M  V30 58 H -5.6214 -0.390582 1.29147 0
M  V30 59 H -4.66353 -0.0199681 -2.21548 0
M  V30 60 H -4.75065 1.74464 -2.05591 0
M  V30 61 H -2.42493 0.439946 -1.75913 0
M  V30 62 H -2.8447 1.86822 -0.682004 0
M  V30 63 H -8.9627 1.37903 -3.26302 0
M  V30 64 H -8.78107 -0.409847 -3.40712 0
M  V30 65 H -9.99252 0.00277825 2.23408 0
M  V30 66 H -7.73674 0.279934 1.57403 0
M  V30 67 H 5.76043 -2.58957 1.87977 0
M  V30 68 H 5.45732 -1.19844 2.96666 0
M  V30 69 H 9.61528 0.754197 -2.41561 0
M  V30 70 H 11.287 0.540934 -0.0996119 0
M  V30 71 H 11.8747 0.708011 -1.7536 0
M  V30 72 H 11.3747 -1.8141 -2.077 0
M  V30 73 H 10.9023 -1.84393 -0.330763 0
M  V30 74 H 13.0661 -0.812496 0.0425408 0
M  V30 END ATOM
M  V30 BEGIN BOND
M  V30 1 1 1 2
M  V30 2 1 2 3
M  V30 3 1 3 4
M  V30 4 1 4 5
M  V30 5 1 5 6
M  V30 6 1 6 7
M  V30 7 1 7 8
M  V30 8 1 8 9
M  V30 9 1 9 10
M  V30 10 1 10 11
M  V30 11 1 11 12
M  V30 12 1 12 13
M  V30 13 1 13 14
M  V30 14 1 12 15
M  V30 15 2 15 16
M  V30 16 1 15 17
M  V30 17 2 17 18
M  V30 18 1 18 19
M  V30 19 1 18 20
M  V30 20 2 20 21
M  V30 21 1 21 22
M  V30 22 1 21 23
M  V30 23 2 23 24
M  V30 24 1 5 25
M  V30 25 2 25 26
M  V30 26 1 26 27
M  V30 27 1 27 28
M  V30 28 2 27 29
M  V30 29 1 29 30
M  V30 30 2 30 31
M  V30 31 1 31 32
M  V30 32 1 29 33
M  V30 33 2 33 34
M  V30 34 1 34 35
M  V30 35 2 35 36
M  V30 36 1 36 37
M  V30 37 1 37 38
M  V30 38 1 38 39
M  V30 39 1 39 40
M  V30 40 1 36 41
M  V30 41 1 8 3
M  V30 42 1 14 9
M  V30 43 1 24 17
M  V30 44 1 31 25
M  V30 45 1 41 33
M  V30 46 1 1 42
M  V30 47 1 1 43
M  V30 48 1 1 44
M  V30 49 1 2 45
M  V30 50 1 2 46
M  V30 51 1 3 47 CFG=3
M  V30 52 1 4 48
M  V30 53 1 4 49
M  V30 54 1 6 50
M  V30 55 1 6 51
M  V30 56 1 7 52
M  V30 57 1 7 53
M  V30 58 1 9 54
M  V30 59 1 10 55
M  V30 60 1 10 56
M  V30 61 1 11 57
M  V30 62 1 11 58
M  V30 63 1 13 59
M  V30 64 1 13 60
M  V30 65 1 14 61
M  V30 66 1 14 62
M  V30 67 1 19 63
M  V30 68 1 19 64
M  V30 69 1 23 65
M  V30 70 1 24 66
M  V30 71 1 28 67
M  V30 72 1 28 68
M  V30 73 1 37 69
M  V30 74 1 38 70
M  V30 75 1 38 71
M  V30 76 1 39 72
M  V30 77 1 39 73
M  V30 78 1 40 74
M  V30 END BOND
M  V30 END CTAB
M  END
