
     RDKit          3D

  0  0  0  0  0  0  0  0  0  0999 V3000
M  V30 BEGIN CTAB
M  V30 COUNTS 27 27 0 0 0
M  V30 BEGIN ATOM
M  V30 1 N -3.41711 -1.17538 0.995756 0
M  V30 2 C -2.76568 0.00205891 0.409249 0
M  V30 3 C -1.28312 -0.244292 0.459854 0
M  V30 4 C -0.464981 0.864154 -0.0927957 0
M  V30 5 N 0.977037 0.572503 0.0135925 0
M  V30 6 C 1.6415 -0.0619811 -0.964492 0
M  V30 7 C 3.00848 -0.33652 -0.859625 0
M  V30 8 C 3.69986 0.0493443 0.271098 0
M  V30 9 N 5.09798 -0.210073 0.422284 0
M  V30 10 N 2.9907 0.682197 1.22397 0
M  V30 11 C 1.66627 0.939602 1.10474 0
M  V30 12 O 1.01486 1.5354 2.00974 0
M  V30 13 C -3.24644 0.204187 -0.968724 0
M  V30 14 O -4.03688 -0.783824 -1.54268 0
M  V30 15 O -3.00116 1.20204 -1.67651 0
M  V30 16 H -2.8052 -2.01791 0.834075 0
M  V30 17 H -3.47244 -1.04772 2.02748 0
M  V30 18 H -3.00735 0.886333 1.02791 0
M  V30 19 H -0.98991 -0.448216 1.51539 0
M  V30 20 H -1.12185 -1.17902 -0.157676 0
M  V30 21 H -0.727323 1.81606 0.407844 0
M  V30 22 H -0.700157 0.994728 -1.18209 0
M  V30 23 H 1.11261 -0.363754 -1.843 0
M  V30 24 H 3.55 -0.848055 -1.64528 0
M  V30 25 H 5.77926 0.57533 0.237271 0
M  V30 26 H 5.49871 -1.10939 0.699665 0
M  V30 27 H -4.99766 -0.497809 -1.76289 0
M  V30 END ATOM
M  V30 BEGIN BOND
M  V30 1 1 1 2
M  V30 2 1 2 3
M  V30 3 1 3 4
M  V30 4 1 4 5
M  V30 5 1 5 6
M  V30 6 2 6 7
M  V30 7 1 7 8
M  V30 8 1 8 9
M  V30 9 2 8 10
M  V30 10 1 10 11
M  V30 11 2 11 12
M  V30 12 1 2 13
M  V30 13 1 13 14
M  V30 14 2 13 15
M  V30 15 1 11 5
M  V30 16 1 1 16
M  V30 17 1 1 17
M  V30 18 1 2 18
M  V30 19 1 3 19
M  V30 20 1 3 20
M  V30 21 1 4 21
M  V30 22 1 4 22
M  V30 23 1 6 23
M  V30 24 1 7 24
M  V30 25 1 9 25
M  V30 26 1 9 26
M  V30 27 1 14 27
M  V30 END BOND
M  V30 END CTAB
M  END
