
     RDKit          3D

  0  0  0  0  0  0  0  0  0  0999 V3000
M  V30 BEGIN CTAB
M  V30 COUNTS 24 24 0 0 0
M  V30 BEGIN ATOM
M  V30 1 N 3.68505 -0.365146 0.68735 0
M  V30 2 C 3.15937 0.761334 -0.0583666 0
M  V30 3 C 1.67687 0.774118 0.0980719 0
M  V30 4 N 1.04599 -0.432271 -0.393878 0
M  V30 5 C -0.374895 -0.548775 -0.3031 0
M  V30 6 C -1.01414 -1.69939 -0.76887 0
M  V30 7 C -2.37827 -1.81948 -0.68546 0
M  V30 8 C -3.13611 -0.791194 -0.133966 0
M  V30 9 C -2.53846 0.361149 0.336833 0
M  V30 10 C -1.16557 0.434545 0.230995 0
M  V30 11 N -3.30831 1.41668 0.902135 0
M  V30 12 H 4.7032 -0.431823 0.44013 0
M  V30 13 H 3.55416 -0.154783 1.70529 0
M  V30 14 H 3.57536 1.68156 0.38302 0
M  V30 15 H 3.39761 0.695495 -1.13534 0
M  V30 16 H 1.24276 1.61957 -0.480289 0
M  V30 17 H 1.43916 0.847661 1.18323 0
M  V30 18 H 1.63576 -1.17099 -0.79437 0
M  V30 19 H -0.379972 -2.48204 -1.19445 0
M  V30 20 H -2.83746 -2.73342 -1.06035 0
M  V30 21 H -4.20494 -0.900825 -0.075789 0
M  V30 22 H -0.643505 1.33237 0.59207 0
M  V30 23 H -4.25165 1.64077 0.550093 0
M  V30 24 H -2.88201 1.96489 1.69578 0
M  V30 END ATOM
M  V30 BEGIN BOND
M  V30 1 1 1 2
M  V30 2 1 2 3
M  V30 3 1 3 4
M  V30 4 1 4 5
M  V30 5 2 5 6
M  V30 6 1 6 7
M  V30 7 2 7 8
M  V30 8 1 8 9
M  V30 9 2 9 10
M  V30 10 1 9 11
M  V30 11 1 10 5
M  V30 12 1 1 12
M  V30 13 1 1 13
M  V30 14 1 2 14
M  V30 15 1 2 15
M  V30 16 1 3 16
M  V30 17 1 3 17
M  V30 18 1 4 18
M  V30 19 1 6 19
M  V30 20 1 7 20
M  V30 21 1 8 21
M  V30 22 1 10 22
M  V30 23 1 11 23
M  V30 24 1 11 24
M  V30 END BOND
M  V30 END CTAB
M  END
