
     RDKit          3D

  0  0  0  0  0  0  0  0  0  0999 V3000
M  V30 BEGIN CTAB
M  V30 COUNTS 27 27 0 0 0
M  V30 BEGIN ATOM
M  V30 1 N -2.496 -1.70371 1.47528 0
M  V30 2 C -1.30122 -1.45885 0.671701 0
M  V30 3 C -1.09161 0.0208141 0.501942 0
M  V30 4 C -1.99735 0.916072 1.07081 0
M  V30 5 C -1.85191 2.26551 0.924777 0
M  V30 6 C -0.78534 2.73269 0.19917 0
M  V30 7 C 0.103794 1.87034 -0.359498 0
M  V30 8 C -0.0236915 0.500283 -0.224224 0
M  V30 9 N 0.929647 -0.390567 -0.80277 0
M  V30 10 S 2.34652 -0.900792 0.0238039 0
M  V30 11 O 2.17607 -0.976348 1.5115 0
M  V30 12 O 2.7178 -2.2713 -0.464264 0
M  V30 13 N 3.59498 0.220747 -0.403493 0
M  V30 14 C 0.710714 -0.894762 -2.13932 0
M  V30 15 H -2.37116 -1.30815 2.45456 0
M  V30 16 H -2.62144 -2.73904 1.50519 0
M  V30 17 H -0.459578 -1.98207 1.10975 0
M  V30 18 H -1.52907 -1.85984 -0.338218 0
M  V30 19 H -2.82371 0.504481 1.63483 0
M  V30 20 H -2.55219 2.99064 1.36339 0
M  V30 21 H -0.643937 3.8035 0.0656877 0
M  V30 22 H 0.944751 2.22135 -0.93099 0
M  V30 23 H 3.54634 1.09747 0.138486 0
M  V30 24 H 3.50447 0.44193 -1.41563 0
M  V30 25 H 0.657993 -2.00725 -2.14566 0
M  V30 26 H 1.5339 -0.609324 -2.83146 0
M  V30 27 H -0.218764 -0.483809 -2.59535 0
M  V30 END ATOM
M  V30 BEGIN BOND
M  V30 1 1 1 2
M  V30 2 1 2 3
M  V30 3 2 3 4
M  V30 4 1 4 5
M  V30 5 2 5 6
M  V30 6 1 6 7
M  V30 7 2 7 8
M  V30 8 1 8 9
M  V30 9 1 9 10
M  V30 10 2 10 11
M  V30 11 2 10 12
M  V30 12 1 10 13
M  V30 13 1 9 14
M  V30 14 1 8 3
M  V30 15 1 1 15
M  V30 16 1 1 16
M  V30 17 1 2 17
M  V30 18 1 2 18
M  V30 19 1 4 19
M  V30 20 1 5 20
M  V30 21 1 6 21
M  V30 22 1 7 22
M  V30 23 1 13 23
M  V30 24 1 13 24
M  V30 25 1 14 25
M  V30 26 1 14 26
M  V30 27 1 14 27
M  V30 END BOND
M  V30 END CTAB
M  END
