
     RDKit          3D

  0  0  0  0  0  0  0  0  0  0999 V3000
M  V30 BEGIN CTAB
M  V30 COUNTS 20 20 0 0 0
M  V30 BEGIN ATOM
M  V30 1 N 4.08783 0.0634824 -1.47891 0
M  V30 2 C 3.43027 0.215869 -0.547189 0
M  V30 3 C 2.61098 0.392442 0.639978 0
M  V30 4 C 1.19155 0.0522359 0.363448 0
M  V30 5 C 0.223044 1.0221 0.194895 0
M  V30 6 C -1.09031 0.692175 -0.0613485 0
M  V30 7 N -2.05945 1.72683 -0.227764 0
M  V30 8 C -1.50698 -0.624336 -0.163613 0
M  V30 9 C -0.540373 -1.59464 0.00436934 0
M  V30 10 C 0.773354 -1.25997 0.261152 0
M  V30 11 Cl 1.97715 -2.52251 0.469146 0
M  V30 12 N -2.86434 -0.963729 -0.429881 0
M  V30 13 H 2.64838 1.44683 0.969714 0
M  V30 14 H 3.05907 -0.216775 1.45153 0
M  V30 15 H 0.548635 2.0671 0.275627 0
M  V30 16 H -2.20441 2.46276 0.505306 0
M  V30 17 H -2.67426 1.81686 -1.06937 0
M  V30 18 H -0.859787 -2.64197 -0.0757238 0
M  V30 19 H -3.46001 -0.257836 -0.90393 0
M  V30 20 H -3.29034 -1.87693 -0.177442 0
M  V30 END ATOM
M  V30 BEGIN BOND
M  V30 1 3 1 2
M  V30 2 1 2 3
M  V30 3 1 3 4
M  V30 4 2 4 5
M  V30 5 1 5 6
M  V30 6 1 6 7
M  V30 7 2 6 8
M  V30 8 1 8 9
M  V30 9 2 9 10
M  V30 10 1 10 11
M  V30 11 1 8 12
M  V30 12 1 10 4
M  V30 13 1 3 13
M  V30 14 1 3 14
M  V30 15 1 5 15
M  V30 16 1 7 16
M  V30 17 1 7 17
M  V30 18 1 9 18
M  V30 19 1 12 19
M  V30 20 1 12 20
M  V30 END BOND
M  V30 END CTAB
M  END
