
     RDKit          3D

  0  0  0  0  0  0  0  0  0  0999 V3000
M  V30 BEGIN CTAB
M  V30 COUNTS 64 66 0 0 0
M  V30 BEGIN ATOM
M  V30 1 C -0.319232 -5.55484 3.05379 0
M  V30 2 C -0.0440131 -4.60538 1.96468 0
M  V30 3 O 0.49973 -5.04216 0.924841 0
M  V30 4 N -0.368088 -3.25836 2.06118 0
M  V30 5 C -0.159338 -2.25769 1.10012 0
M  V30 6 C 1.01978 -1.61075 1.0364 0
M  V30 7 C 2.07982 -2.00206 2.00624 0
M  V30 8 C 1.30629 -0.573642 0.090946 0
M  V30 9 C 2.6273 0.00253898 0.249003 0
M  V30 10 N 3.23406 0.9246 -0.605955 0
M  V30 11 C 3.81798 0.679924 -1.87777 0
M  V30 12 O 3.79251 -0.522668 -2.3131 0
M  V30 13 C 4.44975 1.66258 -2.75525 0
M  V30 14 S 4.68829 3.29897 -2.03694 0
M  V30 15 C 5.96779 3.27853 -0.759317 0
M  V30 16 N 7.27976 3.46618 -0.939661 0
M  V30 17 N 8.05574 3.434 0.0538977 0
M  V30 18 C 7.56527 3.21451 1.27097 0
M  V30 19 S 5.8991 3.05081 0.927074 0
M  V30 20 N 8.28492 3.14233 2.52297 0
M  V30 21 C 0.293194 -0.267616 -0.757756 0
M  V30 22 C -0.983401 -0.920581 -0.735674 0
M  V30 23 C -1.16299 -1.90383 0.200297 0
M  V30 24 C -2.40502 -2.69409 0.26208 0
M  V30 25 C -1.90191 -0.432919 -1.74218 0
M  V30 26 N -3.23295 -0.847108 -1.87773 0
M  V30 27 C -4.34101 -0.422195 -1.04581 0
M  V30 28 O -4.15979 0.395646 -0.0962418 0
M  V30 29 C -5.70795 -0.92179 -1.27331 0
M  V30 30 S -6.85341 -0.213667 -0.0693111 0
M  V30 31 C -6.98836 1.57198 -0.312806 0
M  V30 32 N -7.81954 2.26426 -1.08226 0
M  V30 33 N -7.75253 3.5217 -1.11227 0
M  V30 34 C -6.8523 4.16562 -0.37676 0
M  V30 35 S -6.07028 2.83157 0.395121 0
M  V30 36 N -6.60122 5.56192 -0.256656 0
M  V30 37 C 0.482881 0.820044 -1.73248 0
M  V30 38 H -1.18348 -5.21902 3.69714 0
M  V30 39 H 0.572126 -5.76094 3.68272 0
M  V30 40 H -0.649349 -6.52419 2.61169 0
M  V30 41 H -0.830446 -2.93145 2.96603 0
M  V30 42 H 2.44551 -1.14682 2.61227 0
M  V30 43 H 1.65271 -2.68692 2.79806 0
M  V30 44 H 2.96431 -2.46003 1.52593 0
M  V30 45 H 3.38656 -0.846722 0.366099 0
M  V30 46 H 2.65503 0.401623 1.34686 0
M  V30 47 H 3.26913 1.94773 -0.31107 0
M  V30 48 H 3.85724 1.83353 -3.70175 0
M  V30 49 H 5.43349 1.28436 -3.13955 0
M  V30 50 H 9.03294 2.45763 2.66393 0
M  V30 51 H 7.96818 3.83895 3.23861 0
M  V30 52 H -2.1496 -3.71988 0.723555 0
M  V30 53 H -3.16462 -2.31931 0.94493 0
M  V30 54 H -2.73069 -2.99408 -0.749289 0
M  V30 55 H -1.409 -0.385198 -2.77444 0
M  V30 56 H -2.03312 0.71834 -1.52141 0
M  V30 57 H -3.48636 -1.51952 -2.63258 0
M  V30 58 H -5.78654 -2.02849 -1.19304 0
M  V30 59 H -5.98384 -0.653374 -2.31409 0
M  V30 60 H -6.18948 5.94314 0.609513 0
M  V30 61 H -6.8338 6.18732 -1.04106 0
M  V30 62 H 1.00175 0.407273 -2.61639 0
M  V30 63 H 1.04227 1.69323 -1.35788 0
M  V30 64 H -0.471761 1.24646 -2.14196 0
M  V30 END ATOM
M  V30 BEGIN BOND
M  V30 1 1 1 2
M  V30 2 2 2 3
M  V30 3 1 2 4
M  V30 4 1 4 5
M  V30 5 2 5 6
M  V30 6 1 6 7
M  V30 7 1 6 8
M  V30 8 1 8 9
M  V30 9 1 9 10
M  V30 10 1 10 11
M  V30 11 2 11 12
M  V30 12 1 11 13
M  V30 13 1 13 14
M  V30 14 1 14 15
M  V30 15 2 15 16
M  V30 16 1 16 17
M  V30 17 2 17 18
M  V30 18 1 18 19
M  V30 19 1 18 20
M  V30 20 2 8 21
M  V30 21 1 21 22
M  V30 22 2 22 23
M  V30 23 1 23 24
M  V30 24 1 22 25
M  V30 25 1 25 26
M  V30 26 1 26 27
M  V30 27 2 27 28
M  V30 28 1 27 29
M  V30 29 1 29 30
M  V30 30 1 30 31
M  V30 31 2 31 32
M  V30 32 1 32 33
M  V30 33 2 33 34
M  V30 34 1 34 35
M  V30 35 1 34 36
M  V30 36 1 21 37
M  V30 37 1 23 5
M  V30 38 1 35 31
M  V30 39 1 19 15
M  V30 40 1 1 38
M  V30 41 1 1 39
M  V30 42 1 1 40
M  V30 43 1 4 41
M  V30 44 1 7 42
M  V30 45 1 7 43
M  V30 46 1 7 44
M  V30 47 1 9 45
M  V30 48 1 9 46
M  V30 49 1 10 47
M  V30 50 1 13 48
M  V30 51 1 13 49
M  V30 52 1 20 50
M  V30 53 1 20 51
M  V30 54 1 24 52
M  V30 55 1 24 53
M  V30 56 1 24 54
M  V30 57 1 25 55
M  V30 58 1 25 56
M  V30 59 1 26 57
M  V30 60 1 29 58
M  V30 61 1 29 59
M  V30 62 1 36 60
M  V30 63 1 36 61
M  V30 64 1 37 62
M  V30 65 1 37 63
M  V30 66 1 37 64
M  V30 END BOND
M  V30 END CTAB
M  END
