
     RDKit          3D

  0  0  0  0  0  0  0  0  0  0999 V3000
M  V30 BEGIN CTAB
M  V30 COUNTS 37 37 0 0 0
M  V30 BEGIN ATOM
M  V30 1 N 3.48046 -1.50335 0.169362 0
M  V30 2 C 3.38613 -0.0827819 -0.0371031 0
M  V30 3 C 1.96311 0.415809 -0.0792007 0
M  V30 4 N 2.03639 1.86477 -0.293525 0
M  V30 5 C 1.31671 0.0988634 1.2493 0
M  V30 6 C -0.0220062 -0.609408 1.00894 0
M  V30 7 C -0.831999 0.339139 0.162712 0
M  V30 8 C -0.201984 0.456625 -1.1871 0
M  V30 9 C 1.18564 -0.154282 -1.23416 0
M  V30 10 C -2.28191 -0.0502421 0.0679309 0
M  V30 11 C -2.91237 -0.072508 1.44016 0
M  V30 12 C -2.4858 -1.40418 -0.550016 0
M  V30 13 C -2.98269 1.00164 -0.765435 0
M  V30 14 H 3.98302 -1.76379 1.0414 0
M  V30 15 H 4.02796 -1.90413 -0.631061 0
M  V30 16 H 3.97758 0.26804 -0.91517 0
M  V30 17 H 3.86451 0.406937 0.847985 0
M  V30 18 H 2.67318 2.30025 0.434904 0
M  V30 19 H 2.55597 1.99296 -1.19962 0
M  V30 20 H 1.9679 -0.488136 1.91727 0
M  V30 21 H 1.04339 1.06917 1.73066 0
M  V30 22 H 0.185634 -1.56224 0.487255 0
M  V30 23 H -0.49164 -0.842304 1.9668 0
M  V30 24 H -0.812102 1.32835 0.704215 0
M  V30 25 H -0.0495818 1.55391 -1.40523 0
M  V30 26 H -0.832218 0.0111113 -1.96217 0
M  V30 27 H 1.17478 -1.2481 -1.2699 0
M  V30 28 H 1.66479 0.215377 -2.16678 0
M  V30 29 H -2.20201 0.245777 2.23452 0
M  V30 30 H -3.77724 0.633726 1.49885 0
M  V30 31 H -3.29886 -1.07774 1.71611 0
M  V30 32 H -3.58188 -1.61001 -0.522312 0
M  V30 33 H -2.17777 -1.4776 -1.59675 0
M  V30 34 H -2.01826 -2.19014 0.0774093 0
M  V30 35 H -3.28764 0.57813 -1.74011 0
M  V30 36 H -2.34296 1.88758 -0.949541 0
M  V30 37 H -3.89625 1.37277 -0.250574 0
M  V30 END ATOM
M  V30 BEGIN BOND
M  V30 1 1 1 2
M  V30 2 1 2 3
M  V30 3 1 3 4
M  V30 4 1 3 5
M  V30 5 1 5 6
M  V30 6 1 6 7
M  V30 7 1 7 8
M  V30 8 1 8 9
M  V30 9 1 7 10
M  V30 10 1 10 11
M  V30 11 1 10 12
M  V30 12 1 10 13
M  V30 13 1 9 3
M  V30 14 1 1 14
M  V30 15 1 1 15
M  V30 16 1 2 16
M  V30 17 1 2 17
M  V30 18 1 4 18
M  V30 19 1 4 19
M  V30 20 1 5 20
M  V30 21 1 5 21
M  V30 22 1 6 22
M  V30 23 1 6 23
M  V30 24 1 7 24
M  V30 25 1 8 25
M  V30 26 1 8 26
M  V30 27 1 9 27
M  V30 28 1 9 28
M  V30 29 1 11 29
M  V30 30 1 11 30
M  V30 31 1 11 31
M  V30 32 1 12 32
M  V30 33 1 12 33
M  V30 34 1 12 34
M  V30 35 1 13 35
M  V30 36 1 13 36
M  V30 37 1 13 37
M  V30 END BOND
M  V30 END CTAB
M  END
