
     RDKit          3D

  0  0  0  0  0  0  0  0  0  0999 V3000
M  V30 BEGIN CTAB
M  V30 COUNTS 26 28 0 0 0
M  V30 BEGIN ATOM
M  V30 1 N 4.51513 -1.00294 0.231502 0
M  V30 2 C 3.18715 -0.490583 0.0689292 0
M  V30 3 C 2.76902 0.550953 0.834053 0
M  V30 4 C 1.47582 1.03403 0.661101 0
M  V30 5 C 0.640748 0.460501 -0.271724 0
M  V30 6 C 1.14013 -0.586215 -1.00278 0
M  V30 7 N 2.38236 -1.04782 -0.834327 0
M  V30 8 C -0.730174 1.03019 -0.49599 0
M  V30 9 C -0.801368 2.29551 -1.0694 0
M  V30 10 S -2.46032 2.57038 -1.23777 0
M  V30 11 C -3.05136 1.10937 -0.591969 0
M  V30 12 N -4.31231 0.606322 -0.385042 0
M  V30 13 C -4.50966 -0.598809 0.170801 0
M  V30 14 N -3.40509 -1.26771 0.505912 0
M  V30 15 C -2.14027 -0.844286 0.335793 0
M  V30 16 N -1.07665 -1.67219 0.778857 0
M  V30 17 C -1.91893 0.424085 -0.251488 0
M  V30 18 H 4.72923 -1.98727 0.00596256 0
M  V30 19 H 5.27592 -0.396544 0.575883 0
M  V30 20 H 3.45175 0.98336 1.56287 0
M  V30 21 H 1.18718 1.86001 1.28838 0
M  V30 22 H 0.476642 -1.05341 -1.75798 0
M  V30 23 H 0.0649822 2.93494 -1.33478 0
M  V30 24 H -5.51038 -0.9748 0.323645 0
M  V30 25 H -0.489261 -1.35609 1.56801 0
M  V30 26 H -0.890301 -2.58098 0.321547 0
M  V30 END ATOM
M  V30 BEGIN BOND
M  V30 1 1 1 2
M  V30 2 2 2 3
M  V30 3 1 3 4
M  V30 4 2 4 5
M  V30 5 1 5 6
M  V30 6 2 6 7
M  V30 7 1 5 8
M  V30 8 2 8 9
M  V30 9 1 9 10
M  V30 10 1 10 11
M  V30 11 2 11 12
M  V30 12 1 12 13
M  V30 13 2 13 14
M  V30 14 1 14 15
M  V30 15 1 15 16
M  V30 16 2 15 17
M  V30 17 1 7 2
M  V30 18 1 17 8
M  V30 19 1 17 11
M  V30 20 1 1 18
M  V30 21 1 1 19
M  V30 22 1 3 20
M  V30 23 1 4 21
M  V30 24 1 6 22
M  V30 25 1 9 23
M  V30 26 1 13 24
M  V30 27 1 16 25
M  V30 28 1 16 26
M  V30 END BOND
M  V30 END CTAB
M  END
