
     RDKit          3D

  0  0  0  0  0  0  0  0  0  0999 V3000
M  V30 BEGIN CTAB
M  V30 COUNTS 24 25 0 0 0
M  V30 BEGIN ATOM
M  V30 1 N 3.06079 2.17543 1.29476 0
M  V30 2 C 2.36916 1.06473 0.765403 0
M  V30 3 N 1.01673 1.05086 0.691241 0
M  V30 4 C 0.368899 -0.000433845 0.190544 0
M  V30 5 N 1.12988 -1.0538 -0.240255 0
M  V30 6 C 2.46275 -1.05018 -0.171638 0
M  V30 7 N 3.17714 -2.19149 -0.643937 0
M  V30 8 N 3.10365 0.013928 0.334415 0
M  V30 9 C -1.05805 -0.13493 0.0588971 0
M  V30 10 C -1.63633 -1.28562 -0.482594 0
M  V30 11 C -2.99257 -1.43523 -0.617436 0
M  V30 12 C -3.81966 -0.415796 -0.205082 0
M  V30 13 C -3.25185 0.717587 0.328178 0
M  V30 14 C -1.87617 0.890137 0.47421 0
M  V30 15 C -1.40196 2.11914 1.04535 0
M  V30 16 N -1.0439 3.1169 1.50768 0
M  V30 17 H 3.052 2.34419 2.31201 0
M  V30 18 H 3.56598 2.80258 0.650381 0
M  V30 19 H 4.07869 -2.45584 -0.189071 0
M  V30 20 H 2.84917 -2.79152 -1.43155 0
M  V30 21 H -0.955923 -2.07564 -0.800178 0
M  V30 22 H -3.41114 -2.3621 -1.05124 0
M  V30 23 H -4.88397 -0.562264 -0.323834 0
M  V30 24 H -3.90332 1.51935 0.652449 0
M  V30 END ATOM
M  V30 BEGIN BOND
M  V30 1 1 1 2
M  V30 2 2 2 3
M  V30 3 1 3 4
M  V30 4 2 4 5
M  V30 5 1 5 6
M  V30 6 1 6 7
M  V30 7 2 6 8
M  V30 8 1 4 9
M  V30 9 2 9 10
M  V30 10 1 10 11
M  V30 11 2 11 12
M  V30 12 1 12 13
M  V30 13 2 13 14
M  V30 14 1 14 15
M  V30 15 3 15 16
M  V30 16 1 8 2
M  V30 17 1 14 9
M  V30 18 1 1 17
M  V30 19 1 1 18
M  V30 20 1 7 19
M  V30 21 1 7 20
M  V30 22 1 10 21
M  V30 23 1 11 22
M  V30 24 1 12 23
M  V30 25 1 13 24
M  V30 END BOND
M  V30 END CTAB
M  END
