
     RDKit          3D

  0  0  0  0  0  0  0  0  0  0999 V3000
M  V30 BEGIN CTAB
M  V30 COUNTS 24 24 0 0 0
M  V30 BEGIN ATOM
M  V30 1 C 3.30372 0.782482 -0.213768 0
M  V30 2 C 2.94019 -0.650081 -0.427858 0
M  V30 3 N 1.76666 -1.07566 0.301362 0
M  V30 4 C 0.468937 -0.527432 0.101394 0
M  V30 5 C 0.204312 0.423001 -0.862662 0
M  V30 6 C -1.08478 0.94386 -1.029 0
M  V30 7 C -2.13578 0.528724 -0.238999 0
M  V30 8 C -1.8742 -0.420041 0.723979 0
M  V30 9 C -0.602682 -0.923698 0.877019 0
M  V30 10 N -2.9436 -0.862783 1.54994 0
M  V30 11 N -3.44808 1.07223 -0.42291 0
M  V30 12 H 3.48518 1.27613 -1.1893 0
M  V30 13 H 4.20911 0.857782 0.391392 0
M  V30 14 H 2.44517 1.26781 0.33347 0
M  V30 15 H 2.84902 -0.862942 -1.51898 0
M  V30 16 H 3.79055 -1.27969 -0.0925177 0
M  V30 17 H 1.83696 -1.8406 1.03803 0
M  V30 18 H 0.986309 0.778188 -1.50574 0
M  V30 19 H -1.28434 1.69787 -1.79697 0
M  V30 20 H -0.413241 -1.67357 1.64367 0
M  V30 21 H -2.72917 -1.04901 2.55406 0
M  V30 22 H -3.91395 -1.01363 1.23222 0
M  V30 23 H -3.70014 1.43073 -1.34882 0
M  V30 24 H -4.15615 1.12032 0.337073 0
M  V30 END ATOM
M  V30 BEGIN BOND
M  V30 1 1 1 2
M  V30 2 1 2 3
M  V30 3 1 3 4
M  V30 4 2 4 5
M  V30 5 1 5 6
M  V30 6 2 6 7
M  V30 7 1 7 8
M  V30 8 2 8 9
M  V30 9 1 8 10
M  V30 10 1 7 11
M  V30 11 1 9 4
M  V30 12 1 1 12
M  V30 13 1 1 13
M  V30 14 1 1 14
M  V30 15 1 2 15
M  V30 16 1 2 16
M  V30 17 1 3 17
M  V30 18 1 5 18
M  V30 19 1 6 19
M  V30 20 1 9 20
M  V30 21 1 10 21
M  V30 22 1 10 22
M  V30 23 1 11 23
M  V30 24 1 11 24
M  V30 END BOND
M  V30 END CTAB
M  END
