
     RDKit          3D

  0  0  0  0  0  0  0  0  0  0999 V3000
M  V30 BEGIN CTAB
M  V30 COUNTS 31 31 0 0 0
M  V30 BEGIN ATOM
M  V30 1 C -1.83529 0.218421 1.5285 0
M  V30 2 C -1.72205 -0.245374 0.107959 0
M  V30 3 C -1.36644 -1.72476 0.129381 0
M  V30 4 C -0.721901 -2.16843 -1.16097 0
M  V30 5 C 0.593147 -1.46714 -1.4226 0
M  V30 6 N 0.538601 -0.22844 -0.639578 0
M  V30 7 C -0.715408 0.496113 -0.706002 0
M  V30 8 C -0.567691 1.94266 -0.338523 0
M  V30 9 O -1.81424 2.54259 -0.432801 0
M  V30 10 C 1.65718 0.167911 0.0984699 0
M  V30 11 N 2.8004 0.393914 -0.471312 0
M  V30 12 N 3.92953 0.786156 0.215703 0
M  V30 13 N 1.59609 0.342804 1.51151 0
M  V30 14 H -1.5752 1.26707 1.68679 0
M  V30 15 H -1.26326 -0.482767 2.20362 0
M  V30 16 H -2.90148 0.107674 1.87629 0
M  V30 17 H -2.72821 -0.180216 -0.35674 0
M  V30 18 H -2.26753 -2.35597 0.266087 0
M  V30 19 H -0.714382 -1.93514 1.01204 0
M  V30 20 H -0.510931 -3.23997 -1.07276 0
M  V30 21 H -1.44926 -2.02263 -1.97087 0
M  V30 22 H 1.46778 -2.07435 -1.18768 0
M  V30 23 H 0.559756 -1.12702 -2.49253 0
M  V30 24 H -1.05195 0.46747 -1.77602 0
M  V30 25 H -0.0628843 2.12213 0.616017 0
M  V30 26 H 0.0794854 2.40979 -1.12659 0
M  V30 27 H -1.85833 3.27141 -1.09275 0
M  V30 28 H 4.61868 1.40001 -0.241805 0
M  V30 29 H 4.13115 0.483459 1.21123 0
M  V30 30 H 1.80854 1.29614 1.90781 0
M  V30 31 H 1.34608 -0.463509 2.11812 0
M  V30 END ATOM
M  V30 BEGIN BOND
M  V30 1 1 1 2
M  V30 2 1 2 3
M  V30 3 1 3 4
M  V30 4 1 4 5
M  V30 5 1 5 6
M  V30 6 1 6 7
M  V30 7 1 7 8
M  V30 8 1 8 9
M  V30 9 1 6 10
M  V30 10 2 10 11 CFG=2
M  V30 11 1 11 12
M  V30 12 1 10 13
M  V30 13 1 7 2
M  V30 14 1 1 14
M  V30 15 1 1 15
M  V30 16 1 1 16
M  V30 17 1 2 17
M  V30 18 1 3 18
M  V30 19 1 3 19
M  V30 20 1 4 20
M  V30 21 1 4 21
M  V30 22 1 5 22
M  V30 23 1 5 23
M  V30 24 1 7 24
M  V30 25 1 8 25
M  V30 26 1 8 26
M  V30 27 1 9 27
M  V30 28 1 12 28
M  V30 29 1 12 29
M  V30 30 1 13 30
M  V30 31 1 13 31
M  V30 END BOND
M  V30 END CTAB
M  END
