
     RDKit          3D

  0  0  0  0  0  0  0  0  0  0999 V3000
M  V30 BEGIN CTAB
M  V30 COUNTS 21 21 0 0 0
M  V30 BEGIN ATOM
M  V30 1 C -3.27479 0.313773 0.181761 0
M  V30 2 C -2.39585 -0.764704 -0.32148 0
M  V30 3 O -2.92503 -1.80194 -0.789897 0
M  V30 4 C -0.945415 -0.594312 -0.259988 0
M  V30 5 C -0.0876324 -1.57292 -0.717268 0
M  V30 6 C 1.28122 -1.41024 -0.658359 0
M  V30 7 C 1.86834 -0.271382 -0.144144 0
M  V30 8 N 3.28024 -0.104929 -0.0840092 0
M  V30 9 C 1.00755 0.708596 0.313796 0
M  V30 10 N 1.5719 1.90444 0.854327 0
M  V30 11 C -0.359472 0.542399 0.253258 0
M  V30 12 H -4.28458 -0.0831207 0.488707 0
M  V30 13 H -2.87967 0.809103 1.09343 0
M  V30 14 H -3.4793 1.05828 -0.618067 0
M  V30 15 H -0.53792 -2.47052 -1.1227 0
M  V30 16 H 1.96421 -2.18794 -1.02176 0
M  V30 17 H 3.84862 -0.479805 -0.87237 0
M  V30 18 H 3.80054 0.362843 0.685536 0
M  V30 19 H 0.932694 2.64201 1.22247 0
M  V30 20 H 2.58111 2.05996 0.89168 0
M  V30 21 H -0.966773 1.34041 0.625075 0
M  V30 END ATOM
M  V30 BEGIN BOND
M  V30 1 1 1 2
M  V30 2 2 2 3
M  V30 3 1 2 4
M  V30 4 2 4 5
M  V30 5 1 5 6
M  V30 6 2 6 7
M  V30 7 1 7 8
M  V30 8 1 7 9
M  V30 9 1 9 10
M  V30 10 2 9 11
M  V30 11 1 11 4
M  V30 12 1 1 12
M  V30 13 1 1 13
M  V30 14 1 1 14
M  V30 15 1 5 15
M  V30 16 1 6 16
M  V30 17 1 8 17
M  V30 18 1 8 18
M  V30 19 1 10 19
M  V30 20 1 10 20
M  V30 21 1 11 21
M  V30 END BOND
M  V30 END CTAB
M  END
