
     RDKit          3D

  0  0  0  0  0  0  0  0  0  0999 V3000
M  V30 BEGIN CTAB
M  V30 COUNTS 26 26 0 0 0
M  V30 BEGIN ATOM
M  V30 1 C -4.08154 0.606071 -0.209796 0
M  V30 2 C -3.48364 0.0965966 1.10821 0
M  V30 3 N -2.0481 0.13173 0.975057 0
M  V30 4 C -1.32335 -0.579693 0.00556547 0
M  V30 5 O -1.92009 -1.32168 -0.839125 0
M  V30 6 C 0.127255 -0.48741 -0.0587527 0
M  V30 7 C 0.756768 0.488452 -0.842378 0
M  V30 8 C 2.13159 0.520259 -0.858407 0
M  V30 9 N 2.78498 1.49613 -1.64189 0
M  V30 10 C 2.87965 -0.392799 -0.115818 0
M  V30 11 C 2.24984 -1.34891 0.651857 0
M  V30 12 C 0.862622 -1.39522 0.679505 0
M  V30 13 Cl 0.0152626 -2.59609 1.64332 0
M  V30 14 N 4.2872 -0.295131 -0.184818 0
M  V30 15 H -5.10759 1.03037 -0.0019899 0
M  V30 16 H -3.40173 1.3614 -0.640182 0
M  V30 17 H -4.19937 -0.278919 -0.874921 0
M  V30 18 H -3.83889 0.79076 1.89551 0
M  V30 19 H -3.88087 -0.895751 1.3307 0
M  V30 20 H -1.52124 0.727391 1.64744 0
M  V30 21 H 0.144766 1.18295 -1.40751 0
M  V30 22 H 2.42332 2.45726 -1.71962 0
M  V30 23 H 3.67395 1.27889 -2.18161 0
M  V30 24 H 2.82048 -2.04754 1.22004 0
M  V30 25 H 4.87726 -1.14941 -0.15965 0
M  V30 26 H 4.77148 0.620287 -0.261844 0
M  V30 END ATOM
M  V30 BEGIN BOND
M  V30 1 1 1 2
M  V30 2 1 2 3
M  V30 3 1 3 4
M  V30 4 2 4 5
M  V30 5 1 4 6
M  V30 6 2 6 7
M  V30 7 1 7 8
M  V30 8 1 8 9
M  V30 9 2 8 10
M  V30 10 1 10 11
M  V30 11 2 11 12
M  V30 12 1 12 13
M  V30 13 1 10 14
M  V30 14 1 12 6
M  V30 15 1 1 15
M  V30 16 1 1 16
M  V30 17 1 1 17
M  V30 18 1 2 18
M  V30 19 1 2 19
M  V30 20 1 3 20
M  V30 21 1 7 21
M  V30 22 1 9 22
M  V30 23 1 9 23
M  V30 24 1 11 24
M  V30 25 1 14 25
M  V30 26 1 14 26
M  V30 END BOND
M  V30 END CTAB
M  END
