
     RDKit          3D

  0  0  0  0  0  0  0  0  0  0999 V3000
M  V30 BEGIN CTAB
M  V30 COUNTS 46 49 0 0 0
M  V30 BEGIN ATOM
M  V30 1 N 6.78469 0.34926 -0.550987 0
M  V30 2 C 5.51266 0.887597 -0.933286 0
M  V30 3 C 4.50658 1.04963 0.198492 0
M  V30 4 C 3.43705 0.599597 -0.806758 0
M  V30 5 C 4.54561 -0.098016 -1.55908 0
M  V30 6 O 2.45474 -0.192863 -0.255512 0
M  V30 7 C 1.10351 -0.0509611 -0.299992 0
M  V30 8 C 0.480806 0.989083 -0.955593 0
M  V30 9 C -0.886098 1.08654 -0.972222 0
M  V30 10 C -1.73436 0.150686 -0.333995 0
M  V30 11 C -3.17308 0.406223 -0.403195 0
M  V30 12 C -4.17255 -0.502312 -0.482763 0
M  V30 13 C -5.48706 -0.0270326 -0.614011 0
M  V30 14 C -5.77179 1.31623 -0.663599 0
M  V30 15 C -4.72273 2.20586 -0.580579 0
M  V30 16 N -4.99285 3.61616 -0.63072 0
M  V30 17 N -3.48413 1.75017 -0.456129 0
M  V30 18 C -1.11246 -0.881604 0.319919 0
M  V30 19 C 0.281552 -0.959875 0.321474 0
M  V30 20 C 0.872175 -2.11788 1.05548 0
M  V30 21 C 0.207661 -2.06023 2.43707 0
M  V30 22 C -1.19653 -2.50031 2.24189 0
M  V30 23 C -1.91693 -1.86784 1.06866 0
M  V30 24 H 6.83381 -0.637661 -0.895972 0
M  V30 25 H 6.92806 0.438313 0.475663 0
M  V30 26 H 5.57361 1.81288 -1.57214 0
M  V30 27 H 4.37647 2.07561 0.566754 0
M  V30 28 H 4.66931 0.267505 0.942011 0
M  V30 29 H 3.05836 1.47087 -1.36106 0
M  V30 30 H 4.71918 -1.15515 -1.28381 0
M  V30 31 H 4.41862 0.0141602 -2.63421 0
M  V30 32 H 1.05076 1.76467 -1.47991 0
M  V30 33 H -1.39551 1.90578 -1.49284 0
M  V30 34 H -3.98759 -1.55108 -0.477324 0
M  V30 35 H -6.26882 -0.755285 -0.674817 0
M  V30 36 H -6.76411 1.71424 -0.763289 0
M  V30 37 H -4.55938 4.1796 -1.38161 0
M  V30 38 H -5.60158 4.08125 0.0542588 0
M  V30 39 H 0.515451 -3.04153 0.55616 0
M  V30 40 H 1.95566 -2.06642 1.12439 0
M  V30 41 H 0.274757 -0.994138 2.77741 0
M  V30 42 H 0.695331 -2.72719 3.14652 0
M  V30 43 H -1.77428 -2.31291 3.16797 0
M  V30 44 H -1.18753 -3.60924 2.12859 0
M  V30 45 H -2.27981 -2.68885 0.435176 0
M  V30 46 H -2.78724 -1.33355 1.49751 0
M  V30 END ATOM
M  V30 BEGIN BOND
M  V30 1 1 1 2
M  V30 2 1 2 3
M  V30 3 1 3 4
M  V30 4 1 4 5
M  V30 5 1 4 6
M  V30 6 1 6 7
M  V30 7 2 7 8
M  V30 8 1 8 9
M  V30 9 2 9 10
M  V30 10 1 10 11
M  V30 11 2 11 12
M  V30 12 1 12 13
M  V30 13 2 13 14
M  V30 14 1 14 15
M  V30 15 1 15 16
M  V30 16 2 15 17
M  V30 17 1 10 18
M  V30 18 2 18 19
M  V30 19 1 19 20
M  V30 20 1 20 21
M  V30 21 1 21 22
M  V30 22 1 22 23
M  V30 23 1 5 2
M  V30 24 1 19 7
M  V30 25 1 17 11
M  V30 26 1 23 18
M  V30 27 1 1 24
M  V30 28 1 1 25
M  V30 29 1 2 26
M  V30 30 1 3 27
M  V30 31 1 3 28
M  V30 32 1 4 29
M  V30 33 1 5 30
M  V30 34 1 5 31
M  V30 35 1 8 32
M  V30 36 1 9 33
M  V30 37 1 12 34
M  V30 38 1 13 35
M  V30 39 1 14 36
M  V30 40 1 16 37
M  V30 41 1 16 38
M  V30 42 1 20 39
M  V30 43 1 20 40
M  V30 44 1 21 41
M  V30 45 1 21 42
M  V30 46 1 22 43
M  V30 47 1 22 44
M  V30 48 1 23 45
M  V30 49 1 23 46
M  V30 END BOND
M  V30 END CTAB
M  END
