
     RDKit          3D

  0  0  0  0  0  0  0  0  0  0999 V3000
M  V30 BEGIN CTAB
M  V30 COUNTS 54 56 0 0 0
M  V30 BEGIN ATOM
M  V30 1 N 7.80619 -0.64271 1.06381 0
M  V30 2 C 6.88797 -1.21996 0.106435 0
M  V30 3 C 6.09222 -0.138962 -0.617741 0
M  V30 4 N 5.21213 -0.858543 -1.54644 0
M  V30 5 S 4.25637 0.278489 -2.42684 0
M  V30 6 O 5.18647 1.22588 -3.16036 0
M  V30 7 O 3.45216 -0.437085 -3.45527 0
M  V30 8 C 3.26583 1.1729 -1.30786 0
M  V30 9 C 3.73712 2.31989 -0.765729 0
M  V30 10 C 2.95103 3.0167 0.113533 0
M  V30 11 C 1.69662 2.55254 0.439444 0
M  V30 12 C 1.17219 1.36978 -0.100011 0
M  V30 13 C 1.98882 0.710765 -0.968821 0
M  V30 14 N -0.102757 0.954609 0.281355 0
M  V30 15 C -0.835503 -0.116621 -0.239399 0
M  V30 16 O -0.456771 -0.882402 -1.14623 0
M  V30 17 C -2.20912 -0.362417 0.355025 0
M  V30 18 C -3.00179 0.879532 0.111141 0
M  V30 19 C -4.48782 0.6946 0.270997 0
M  V30 20 C -4.8581 0.626002 1.70757 0
M  V30 21 C -5.11697 -0.730817 2.24256 0
M  V30 22 C -4.37906 -1.83906 1.59282 0
M  V30 23 C -4.25763 -1.71992 0.10067 0
M  V30 24 C -2.79109 -1.60266 -0.244083 0
M  V30 25 C -4.988 -0.539018 -0.446746 0
M  V30 26 N -4.76058 -0.405636 -1.85395 0
M  V30 27 H 7.95337 -1.33995 1.82586 0
M  V30 28 H 7.4323 0.218961 1.52236 0
M  V30 29 H 7.47139 -1.75524 -0.67527 0
M  V30 30 H 6.2318 -1.91862 0.63718 0
M  V30 31 H 5.49363 0.474962 0.0585138 0
M  V30 32 H 6.80825 0.495283 -1.15687 0
M  V30 33 H 4.58686 -1.51298 -1.03027 0
M  V30 34 H 4.71986 2.74086 -0.981979 0
M  V30 35 H 3.32145 3.95111 0.562239 0
M  V30 36 H 1.07966 3.08914 1.12175 0
M  V30 37 H 1.69272 -0.215846 -1.44332 0
M  V30 38 H -0.584165 1.50812 1.06027 0
M  V30 39 H -2.01105 -0.470178 1.45413 0
M  V30 40 H -2.75134 1.24324 -0.921641 0
M  V30 41 H -2.68424 1.62988 0.887819 0
M  V30 42 H -4.97509 1.57129 -0.222201 0
M  V30 43 H -4.08865 1.17691 2.31146 0
M  V30 44 H -5.80139 1.23166 1.84858 0
M  V30 45 H -6.22197 -0.961861 2.26673 0
M  V30 46 H -4.82593 -0.725125 3.33437 0
M  V30 47 H -4.95837 -2.79004 1.78554 0
M  V30 48 H -3.38129 -2.02774 2.06691 0
M  V30 49 H -4.63066 -2.62841 -0.439307 0
M  V30 50 H -2.65123 -1.52333 -1.35878 0
M  V30 51 H -2.19981 -2.46408 0.116826 0
M  V30 52 H -6.07868 -0.59487 -0.264218 0
M  V30 53 H -5.03139 0.587902 -2.11287 0
M  V30 54 H -5.37595 -1.08361 -2.35971 0
M  V30 END ATOM
M  V30 BEGIN BOND
M  V30 1 1 1 2
M  V30 2 1 2 3
M  V30 3 1 3 4
M  V30 4 1 4 5
M  V30 5 2 5 6
M  V30 6 2 5 7
M  V30 7 1 5 8
M  V30 8 2 8 9
M  V30 9 1 9 10
M  V30 10 2 10 11
M  V30 11 1 11 12
M  V30 12 2 12 13
M  V30 13 1 12 14
M  V30 14 1 14 15
M  V30 15 2 15 16
M  V30 16 1 15 17
M  V30 17 1 17 18
M  V30 18 1 18 19
M  V30 19 1 19 20
M  V30 20 1 20 21
M  V30 21 1 21 22
M  V30 22 1 22 23
M  V30 23 1 23 24
M  V30 24 1 23 25
M  V30 25 1 25 26
M  V30 26 1 13 8
M  V30 27 1 24 17
M  V30 28 1 25 19
M  V30 29 1 1 27
M  V30 30 1 1 28
M  V30 31 1 2 29
M  V30 32 1 2 30
M  V30 33 1 3 31
M  V30 34 1 3 32
M  V30 35 1 4 33
M  V30 36 1 9 34
M  V30 37 1 10 35
M  V30 38 1 11 36
M  V30 39 1 13 37
M  V30 40 1 14 38
M  V30 41 1 17 39
M  V30 42 1 18 40
M  V30 43 1 18 41
M  V30 44 1 19 42
M  V30 45 1 20 43
M  V30 46 1 20 44
M  V30 47 1 21 45
M  V30 48 1 21 46
M  V30 49 1 22 47
M  V30 50 1 22 48
M  V30 51 1 23 49
M  V30 52 1 24 50
M  V30 53 1 24 51
M  V30 54 1 25 52
M  V30 55 1 26 53
M  V30 56 1 26 54
M  V30 END BOND
M  V30 END CTAB
M  END
