
     RDKit          3D

  0  0  0  0  0  0  0  0  0  0999 V3000
M  V30 BEGIN CTAB
M  V30 COUNTS 23 24 0 0 0
M  V30 BEGIN ATOM
M  V30 1 N 3.99697 0.354597 -0.270158 0
M  V30 2 C 2.57479 0.228232 -0.233481 0
M  V30 3 C 1.74675 1.33375 -0.205355 0
M  V30 4 C 0.36214 1.18845 -0.16203 0
M  V30 5 C -0.237036 -0.0511403 -0.145925 0
M  V30 6 C 0.585282 -1.16101 -0.174832 0
M  V30 7 C 1.97663 -1.01338 -0.218159 0
M  V30 8 C -1.72384 -0.245628 -0.0858191 0
M  V30 9 N -2.16536 -1.49933 -0.63061 0
M  V30 10 C -2.64102 0.894041 0.0377763 0
M  V30 11 C -2.37332 0.101217 1.277 0
M  V30 12 H 4.5573 0.974427 0.349058 0
M  V30 13 H 4.50419 -0.218711 -0.967604 0
M  V30 14 H 2.20345 2.29938 -0.216138 0
M  V30 15 H -0.28308 2.04799 -0.139775 0
M  V30 16 H 0.134645 -2.13569 -0.164866 0
M  V30 17 H 2.62912 -1.8673 -0.241588 0
M  V30 18 H -3.09518 -1.48286 -1.05428 0
M  V30 19 H -1.95746 -2.3293 -0.0432586 0
M  V30 20 H -2.3143 1.94546 0.00421581 0
M  V30 21 H -3.66358 0.75173 -0.410212 0
M  V30 22 H -1.67265 0.458571 2.0368 0
M  V30 23 H -3.14446 -0.573496 1.65925 0
M  V30 END ATOM
M  V30 BEGIN BOND
M  V30 1 1 1 2
M  V30 2 2 2 3
M  V30 3 1 3 4
M  V30 4 2 4 5
M  V30 5 1 5 6
M  V30 6 2 6 7
M  V30 7 1 5 8
M  V30 8 1 8 9
M  V30 9 1 8 10
M  V30 10 1 10 11
M  V30 11 1 7 2
M  V30 12 1 11 8
M  V30 13 1 1 12
M  V30 14 1 1 13
M  V30 15 1 3 14
M  V30 16 1 4 15
M  V30 17 1 6 16
M  V30 18 1 7 17
M  V30 19 1 9 18
M  V30 20 1 9 19
M  V30 21 1 10 20
M  V30 22 1 10 21
M  V30 23 1 11 22
M  V30 24 1 11 23
M  V30 END BOND
M  V30 END CTAB
M  END
