
     RDKit          3D

  0  0  0  0  0  0  0  0  0  0999 V3000
M  V30 BEGIN CTAB
M  V30 COUNTS 33 35 0 0 0
M  V30 BEGIN ATOM
M  V30 1 N -6.24638 0.751682 0.0416744 0
M  V30 2 C -4.86177 0.463367 0.108804 0
M  V30 3 N -4.39838 -0.641066 0.748135 0
M  V30 4 C -3.07814 -0.94101 0.827484 0
M  V30 5 C -2.16959 -0.109946 0.247147 0
M  V30 6 C -0.878809 -0.587434 0.437629 0
M  V30 7 C 0.385411 -0.00585209 -0.0189543 0
M  V30 8 N 1.50786 -0.786191 0.3718 0
M  V30 9 C 2.82281 -0.388148 0.0238345 0
M  V30 10 C 2.99199 0.770153 -0.700631 0
M  V30 11 C 4.2482 1.18443 -1.05397 0
M  V30 12 C 5.35181 0.445243 -0.687121 0
M  V30 13 Cl 6.95119 0.976289 -1.13923 0
M  V30 14 C 5.19475 -0.719237 0.0401853 0
M  V30 15 Cl 6.60767 -1.63969 0.493944 0
M  V30 16 C 3.93311 -1.12895 0.391156 0
M  V30 17 C -1.04208 -1.74655 1.16004 0
M  V30 18 N -2.37782 -1.94353 1.38593 0
M  V30 19 C -2.6235 1.01451 -0.405163 0
M  V30 20 N -1.66739 1.86137 -0.998403 0
M  V30 21 N -3.96027 1.28058 -0.46248 0
M  V30 22 H -6.90122 0.0677714 -0.362341 0
M  V30 23 H -6.59837 1.65165 0.399777 0
M  V30 24 H 0.386763 0.289251 -1.08581 0
M  V30 25 H 0.483965 0.980841 0.529312 0
M  V30 26 H 1.39691 -1.6576 0.915626 0
M  V30 27 H 2.13136 1.34161 -0.983651 0
M  V30 28 H 4.37459 2.07982 -1.61364 0
M  V30 29 H 3.7838 -2.02246 0.951486 0
M  V30 30 H -0.306742 -2.44679 1.5307 0
M  V30 31 H -2.80983 -2.73289 1.90319 0
M  V30 32 H -1.23743 2.62927 -0.463757 0
M  V30 33 H -1.39446 1.70952 -1.98265 0
M  V30 END ATOM
M  V30 BEGIN BOND
M  V30 1 1 1 2
M  V30 2 2 2 3
M  V30 3 1 3 4
M  V30 4 2 4 5
M  V30 5 1 5 6
M  V30 6 1 6 7
M  V30 7 1 7 8
M  V30 8 1 8 9
M  V30 9 2 9 10
M  V30 10 1 10 11
M  V30 11 2 11 12
M  V30 12 1 12 13
M  V30 13 1 12 14
M  V30 14 1 14 15
M  V30 15 2 14 16
M  V30 16 2 6 17
M  V30 17 1 17 18
M  V30 18 1 5 19
M  V30 19 1 19 20
M  V30 20 2 19 21
M  V30 21 1 21 2
M  V30 22 1 18 4
M  V30 23 1 16 9
M  V30 24 1 1 22
M  V30 25 1 1 23
M  V30 26 1 7 24
M  V30 27 1 7 25
M  V30 28 1 8 26
M  V30 29 1 10 27
M  V30 30 1 11 28
M  V30 31 1 16 29
M  V30 32 1 17 30
M  V30 33 1 18 31
M  V30 34 1 20 32
M  V30 35 1 20 33
M  V30 END BOND
M  V30 END CTAB
M  END
