
     RDKit          3D

  0  0  0  0  0  0  0  0  0  0999 V3000
M  V30 BEGIN CTAB
M  V30 COUNTS 42 41 0 0 0
M  V30 BEGIN ATOM
M  V30 1 C -2.74727 -0.244413 0.560041 0 CFG=1
M  V30 2 N -2.35719 -0.146991 1.94229 0
M  V30 3 C -2.96954 1.0867 -0.0800021 0
M  V30 4 C -1.75888 1.98562 -0.0831446 0
M  V30 5 C -4.0584 1.80282 0.700206 0
M  V30 6 C -1.75584 -1.0826 -0.143521 0
M  V30 7 O -1.89778 -1.26212 -1.37314 0
M  V30 8 N -0.657472 -1.68929 0.510886 0
M  V30 9 C 0.314254 -2.50265 -0.1495 0 CFG=1
M  V30 10 C 1.70935 -1.93768 -0.0719657 0
M  V30 11 C 1.81875 -0.572539 -0.699911 0
M  V30 12 C 3.28286 -0.142107 -0.536387 0
M  V30 13 N 3.50049 1.16152 -1.10925 0
M  V30 14 C 2.92656 2.34145 -0.538322 0
M  V30 15 N 3.28283 2.79264 0.771424 0
M  V30 16 N 2.06748 2.98641 -1.25777 0
M  V30 17 C 0.36213 -3.88693 0.365881 0
M  V30 18 O 1.25416 -4.77852 -0.183242 0
M  V30 19 O -0.406916 -4.21845 1.2886 0
M  V30 20 H -3.76007 -0.741523 0.570159 0
M  V30 21 H -2.776 -0.890769 2.52765 0
M  V30 22 H -2.47413 0.81664 2.32945 0
M  V30 23 H -3.33219 0.963676 -1.10915 0
M  V30 24 H -0.946527 1.54867 -0.719425 0
M  V30 25 H -1.4311 2.30857 0.901857 0
M  V30 26 H -2.07723 2.91731 -0.638978 0
M  V30 27 H -4.68289 1.03895 1.20388 0
M  V30 28 H -3.57067 2.39564 1.51352 0
M  V30 29 H -4.65333 2.47768 0.0597453 0
M  V30 30 H -0.519655 -1.5501 1.55757 0
M  V30 31 H 0.0381166 -2.52283 -1.24723 0
M  V30 32 H 2.45446 -2.59038 -0.56588 0
M  V30 33 H 2.0479 -1.83023 0.985818 0
M  V30 34 H 1.22276 0.192305 -0.174116 0
M  V30 35 H 1.58516 -0.661997 -1.77069 0
M  V30 36 H 3.96489 -0.853384 -1.05363 0
M  V30 37 H 3.55913 -0.129052 0.541986 0
M  V30 38 H 4.08534 1.30511 -1.96415 0
M  V30 39 H 3.26098 3.80288 0.965568 0
M  V30 40 H 3.55062 2.05505 1.47701 0
M  V30 41 H 1.61013 3.84356 -0.920151 0
M  V30 42 H 0.934719 -5.58867 -0.718479 0
M  V30 END ATOM
M  V30 BEGIN BOND
M  V30 1 1 1 2
M  V30 2 1 1 3
M  V30 3 1 3 4
M  V30 4 1 3 5
M  V30 5 1 1 6
M  V30 6 2 6 7
M  V30 7 1 6 8
M  V30 8 1 8 9
M  V30 9 1 9 10
M  V30 10 1 10 11
M  V30 11 1 11 12
M  V30 12 1 12 13
M  V30 13 1 13 14
M  V30 14 1 14 15
M  V30 15 2 14 16 CFG=2
M  V30 16 1 9 17
M  V30 17 1 17 18
M  V30 18 2 17 19
M  V30 19 1 1 20 CFG=1
M  V30 20 1 2 21
M  V30 21 1 2 22
M  V30 22 1 3 23
M  V30 23 1 4 24
M  V30 24 1 4 25
M  V30 25 1 4 26
M  V30 26 1 5 27
M  V30 27 1 5 28
M  V30 28 1 5 29
M  V30 29 1 8 30
M  V30 30 1 9 31 CFG=3
M  V30 31 1 10 32
M  V30 32 1 10 33
M  V30 33 1 11 34
M  V30 34 1 11 35
M  V30 35 1 12 36
M  V30 36 1 12 37
M  V30 37 1 13 38
M  V30 38 1 15 39
M  V30 39 1 15 40
M  V30 40 1 16 41
M  V30 41 1 18 42
M  V30 END BOND
M  V30 END CTAB
M  END
