
     RDKit          3D

  0  0  0  0  0  0  0  0  0  0999 V3000
M  V30 BEGIN CTAB
M  V30 COUNTS 25 24 0 0 0
M  V30 BEGIN ATOM
M  V30 1 C 0.524826 0.155213 0.890199 0 CFG=1
M  V30 2 N 0.514707 1.50114 0.386741 0
M  V30 3 C -0.477615 -0.749666 0.245156 0
M  V30 4 C -1.89669 -0.307695 0.405687 0
M  V30 5 C -2.84281 -1.2898 -0.278859 0
M  V30 6 C -2.15703 1.03214 -0.268564 0
M  V30 7 C 1.89501 -0.385681 0.692924 0
M  V30 8 O 2.08835 -1.5738 1.07825 0
M  V30 9 N 2.94633 0.353576 0.112649 0
M  V30 10 N 4.20378 -0.214174 -0.0419729 0
M  V30 11 H 0.310633 0.16957 1.98199 0
M  V30 12 H 0.768998 1.58296 -0.602809 0
M  V30 13 H 0.993264 2.1758 0.986444 0
M  V30 14 H -0.355751 -1.75443 0.671401 0
M  V30 15 H -0.223568 -0.831017 -0.832634 0
M  V30 16 H -2.18393 -0.28927 1.47164 0
M  V30 17 H -2.30493 -2.25603 -0.492862 0
M  V30 18 H -3.7475 -1.48183 0.323577 0
M  V30 19 H -3.17836 -0.91986 -1.26892 0
M  V30 20 H -3.20822 1.08817 -0.643841 0
M  V30 21 H -1.52233 1.12724 -1.15841 0
M  V30 22 H -2.04693 1.82657 0.482819 0
M  V30 23 H 2.75168 1.3459 -0.199188 0
M  V30 24 H 4.20227 -0.826125 -0.865564 0
M  V30 25 H 4.94579 0.521099 -0.0764867 0
M  V30 END ATOM
M  V30 BEGIN BOND
M  V30 1 1 1 2
M  V30 2 1 1 3
M  V30 3 1 3 4
M  V30 4 1 4 5
M  V30 5 1 4 6
M  V30 6 1 1 7
M  V30 7 2 7 8
M  V30 8 1 7 9
M  V30 9 1 9 10
M  V30 10 1 1 11 CFG=1
M  V30 11 1 2 12
M  V30 12 1 2 13
M  V30 13 1 3 14
M  V30 14 1 3 15
M  V30 15 1 4 16
M  V30 16 1 5 17
M  V30 17 1 5 18
M  V30 18 1 5 19
M  V30 19 1 6 20
M  V30 20 1 6 21
M  V30 21 1 6 22
M  V30 22 1 9 23
M  V30 23 1 10 24
M  V30 24 1 10 25
M  V30 END BOND
M  V30 END CTAB
M  END
