
     RDKit          3D

  0  0  0  0  0  0  0  0  0  0999 V3000
M  V30 BEGIN CTAB
M  V30 COUNTS 22 22 0 0 0
M  V30 BEGIN ATOM
M  V30 1 N 2.19192 0.907498 -2.53142 0
M  V30 2 C 1.85301 0.37038 -1.56222 0
M  V30 3 C 1.43685 -0.328538 -0.326398 0
M  V30 4 C -0.0466863 -0.359725 -0.242938 0
M  V30 5 N -0.755452 -1.49073 -0.283552 0
M  V30 6 C -2.10469 -1.39374 -0.198548 0
M  V30 7 N -2.89755 -2.56313 -0.23697 0
M  V30 8 N -2.73236 -0.218293 -0.0774667 0
M  V30 9 C -2.01917 0.943623 -0.0348829 0
M  V30 10 N -0.681154 0.820724 -0.121106 0
M  V30 11 N -2.67162 2.19389 0.0930038 0
M  V30 12 C 2.06149 0.343102 0.814865 0
M  V30 13 O 1.37538 0.804641 1.70332 0
M  V30 14 C 3.53896 0.474411 0.911371 0
M  V30 15 H 1.83684 -1.35969 -0.423524 0
M  V30 16 H -3.17619 -2.9638 -1.14823 0
M  V30 17 H -3.18084 -2.99142 0.661159 0
M  V30 18 H -2.80525 2.58693 1.04507 0
M  V30 19 H -3.01374 2.71805 -0.728441 0
M  V30 20 H 4.02095 -0.466598 0.540917 0
M  V30 21 H 3.88267 0.699977 1.93413 0
M  V30 22 H 3.88663 1.27243 0.211874 0
M  V30 END ATOM
M  V30 BEGIN BOND
M  V30 1 3 1 2
M  V30 2 1 2 3
M  V30 3 1 3 4
M  V30 4 2 4 5
M  V30 5 1 5 6
M  V30 6 1 6 7
M  V30 7 2 6 8
M  V30 8 1 8 9
M  V30 9 2 9 10
M  V30 10 1 9 11
M  V30 11 1 3 12
M  V30 12 2 12 13
M  V30 13 1 12 14
M  V30 14 1 10 4
M  V30 15 1 3 15
M  V30 16 1 7 16
M  V30 17 1 7 17
M  V30 18 1 11 18
M  V30 19 1 11 19
M  V30 20 1 14 20
M  V30 21 1 14 21
M  V30 22 1 14 22
M  V30 END BOND
M  V30 END CTAB
M  END
