
     RDKit          3D

  0  0  0  0  0  0  0  0  0  0999 V3000
M  V30 BEGIN CTAB
M  V30 COUNTS 149 154 0 0 0
M  V30 BEGIN ATOM
M  V30 1 C 12.4102 4.41692 -2.92196 0
M  V30 2 C 12.4375 2.92146 -2.73568 0
M  V30 3 C 11.4072 2.48783 -1.70136 0
M  V30 4 C 11.4863 0.989713 -1.56391 0
M  V30 5 C 10.5976 0.374268 -0.552674 0
M  V30 6 N 10.8501 -1.08604 -0.605918 0
M  V30 7 C 11.3517 -1.74008 0.539192 0
M  V30 8 C 11.6225 -3.19125 0.531938 0
M  V30 9 O 11.5627 -1.03561 1.57674 0
M  V30 10 C 9.16469 0.589047 -0.650269 0
M  V30 11 O 8.40173 -0.412034 -0.871341 0
M  V30 12 N 8.50273 1.82116 -0.513764 0
M  V30 13 C 7.01668 1.95038 -0.596238 0
M  V30 14 C 6.7317 2.82612 -1.76343 0
M  V30 15 C 5.35368 3.19815 -2.02641 0
M  V30 16 O 4.98343 4.3395 -1.52099 0
M  V30 17 N 4.34537 2.53817 -2.73764 0
M  V30 18 C 3.89478 1.19289 -2.68365 0
M  V30 19 C 2.39863 1.06305 -2.31988 0
M  V30 20 C 2.34198 0.95431 -0.81209 0
M  V30 21 C 1.23712 0.139508 -0.286242 0
M  V30 22 C 0.996222 -0.170977 0.972535 0
M  V30 23 N -0.143472 -0.98743 1.24824 0
M  V30 24 C -1.29612 -1.25827 0.54844 0
M  V30 25 O -1.64404 -0.815962 -0.522897 0
M  V30 26 C -2.24482 -2.259 1.24188 0
M  V30 27 C -1.60334 -3.57787 1.15609 0
M  V30 28 C -2.20306 -4.80556 1.64928 0
M  V30 29 C -2.60234 -4.8922 3.08103 0
M  V30 30 N -3.66993 -5.86856 3.08722 0
M  V30 31 C -4.05868 -6.13029 1.75322 0
M  V30 32 C -5.08893 -6.87516 1.20128 0
M  V30 33 C -5.28815 -6.99979 -0.14454 0
M  V30 34 C -4.40801 -6.34242 -1.005 0
M  V30 35 C -3.3796 -5.60068 -0.502945 0
M  V30 36 C -3.21229 -5.49876 0.856361 0
M  V30 37 N -3.56978 -2.08619 0.813004 0
M  V30 38 C -4.21312 -0.813825 1.09699 0
M  V30 39 O -3.4837 0.0572026 1.64584 0
M  V30 40 C -5.58438 -0.550722 0.783066 0
M  V30 41 C -6.53082 -1.74538 0.591483 0
M  V30 42 C -6.62763 -2.53247 1.86401 0
M  V30 43 C -7.50699 -3.69886 1.8136 0
M  V30 44 N -8.87813 -3.43447 1.5304 0
M  V30 45 C -9.4079 -3.06197 0.291322 0
M  V30 46 N -8.92327 -3.69968 -0.893565 0
M  V30 47 N -10.3412 -2.16918 0.180774 0
M  V30 48 N -5.99567 0.612009 0.106764 0
M  V30 49 C -6.41069 1.82156 0.808611 0
M  V30 50 O -6.36841 1.8976 1.99776 0
M  V30 51 C -6.90507 2.9389 -0.110539 0
M  V30 52 N -7.09816 4.12483 0.682949 0
M  V30 53 C -8.24794 2.46071 -0.64789 0
M  V30 54 C -8.93021 3.35732 -1.55297 0
M  V30 55 C -8.69602 3.29012 -2.91685 0
M  V30 56 C -9.3622 4.11835 -3.76442 0
M  V30 57 C -10.2853 5.04937 -3.31252 0
M  V30 58 C -10.9681 5.88659 -4.16677 0
M  V30 59 C -11.8809 6.79441 -3.6689 0
M  V30 60 C -12.1072 6.85857 -2.31337 0
M  V30 61 C -11.4277 6.02312 -1.47209 0
M  V30 62 C -10.5074 5.10859 -1.96625 0
M  V30 63 C -9.85212 4.28955 -1.10504 0
M  V30 64 C 1.76751 0.307686 2.13343 0
M  V30 65 O 1.56515 -0.405285 3.22655 0
M  V30 66 N 2.66039 1.33816 2.35002 0
M  V30 67 C 3.98565 1.65114 2.08509 0
M  V30 68 O 4.08247 2.86928 1.54754 0
M  V30 69 C 5.26838 1.01686 2.23899 0
M  V30 70 C 5.61931 -0.298397 1.70196 0
M  V30 71 C 4.8582 -1.51003 2.18679 0
M  V30 72 C 4.93372 -1.72546 3.62129 0
M  V30 73 N 5.59886 -2.79565 3.88841 0
M  V30 74 C 6.03279 -3.39884 2.66759 0
M  V30 75 N 5.63342 -2.70185 1.70338 0
M  V30 76 N 6.35436 1.94714 1.92478 0
M  V30 77 C 6.66154 2.56549 0.712091 0
M  V30 78 O 6.65809 3.85087 0.662124 0
M  V30 79 H 11.9737 4.90892 -2.03105 0
M  V30 80 H 13.4529 4.82913 -2.99492 0
M  V30 81 H 11.8794 4.65772 -3.85081 0
M  V30 82 H 13.4844 2.65674 -2.40673 0
M  V30 83 H 12.2982 2.38075 -3.68616 0
M  V30 84 H 10.427 2.77818 -2.14979 0
M  V30 85 H 11.6348 3.02178 -0.769329 0
M  V30 86 H 12.5671 0.7874 -1.27762 0
M  V30 87 H 11.387 0.520928 -2.57605 0
M  V30 88 H 10.9347 0.7496 0.456593 0
M  V30 89 H 10.6489 -1.57726 -1.47974 0
M  V30 90 H 12.5169 -3.36601 1.19991 0
M  V30 91 H 11.9254 -3.49405 -0.514927 0
M  V30 92 H 10.7553 -3.76199 0.879196 0
M  V30 93 H 9.03894 2.68301 -0.328935 0
M  V30 94 H 6.57394 0.982483 -0.799745 0
M  V30 95 H 7.36364 3.74497 -1.69727 0
M  V30 96 H 7.10271 2.25136 -2.66996 0
M  V30 97 H 3.81699 3.15605 -3.44631 0
M  V30 98 H 3.96946 0.772947 -3.73065 0
M  V30 99 H 4.45106 0.565313 -1.97161 0
M  V30 100 H 1.85921 1.952 -2.67995 0
M  V30 101 H 2.04125 0.130656 -2.75353 0
M  V30 102 H 2.23266 2.00026 -0.466035 0
M  V30 103 H 3.34099 0.497353 -0.564857 0
M  V30 104 H 0.564953 -0.243441 -1.04388 0
M  V30 105 H -0.0665223 -1.51975 2.2015 0
M  V30 106 H -2.2139 -1.81503 2.30047 0
M  V30 107 H -1.40349 -3.74493 0.0322112 0
M  V30 108 H -0.526727 -3.53543 1.53157 0
M  V30 109 H -1.289 -5.58484 1.61518 0
M  V30 110 H -2.88502 -3.91598 3.52144 0
M  V30 111 H -1.79967 -5.28779 3.73568 0
M  V30 112 H -4.08122 -6.30356 3.92433 0
M  V30 113 H -5.74397 -7.35959 1.91441 0
M  V30 114 H -6.11508 -7.59236 -0.527897 0
M  V30 115 H -4.55347 -6.43496 -2.06769 0
M  V30 116 H -2.69787 -5.09492 -1.17629 0
M  V30 117 H -4.09549 -2.81224 0.306886 0
M  V30 118 H -6.01674 -0.235678 1.92681 0
M  V30 119 H -6.09809 -2.36558 -0.219871 0
M  V30 120 H -7.51865 -1.35942 0.310802 0
M  V30 121 H -5.59338 -2.86282 2.14617 0
M  V30 122 H -6.94526 -1.8274 2.69703 0
M  V30 123 H -7.46467 -4.17407 2.86091 0
M  V30 124 H -7.10001 -4.48218 1.09265 0
M  V30 125 H -9.57403 -3.5273 2.35234 0
M  V30 126 H -9.41985 -3.54918 -1.78053 0
M  V30 127 H -8.08022 -4.30752 -0.863608 0
M  V30 128 H -10.7555 -1.6742 0.992542 0
M  V30 129 H -6.00597 0.625492 -0.938618 0
M  V30 130 H -6.20394 3.12927 -0.899176 0
M  V30 131 H -7.6484 4.85014 0.204777 0
M  V30 132 H -6.17284 4.48803 1.00801 0
M  V30 133 H -8.08623 1.46309 -1.14962 0
M  V30 134 H -8.9304 2.19785 0.211798 0
M  V30 135 H -7.97798 2.56051 -3.28778 0
M  V30 136 H -9.21131 4.10571 -4.85179 0
M  V30 137 H -10.808 5.84859 -5.22866 0
M  V30 138 H -12.4118 7.44817 -4.34131 0
M  V30 139 H -12.8157 7.56001 -1.90556 0
M  V30 140 H -11.5911 6.05854 -0.425093 0
M  V30 141 H -10.0453 4.3539 -0.0363679 0
M  V30 142 H 2.18311 2.17281 2.93988 0
M  V30 143 H 5.4315 0.849352 3.40612 0
M  V30 144 H 6.7058 -0.555574 1.90555 0
M  V30 145 H 5.54421 -0.375276 0.583676 0
M  V30 146 H 3.88596 -1.67673 1.75549 0
M  V30 147 H 4.50774 -1.09371 4.38461 0
M  V30 148 H 6.60633 -4.30887 2.5935 0
M  V30 149 H 7.0192 2.2189 2.73814 0
M  V30 END ATOM
M  V30 BEGIN BOND
M  V30 1 1 1 2
M  V30 2 1 2 3
M  V30 3 1 3 4
M  V30 4 1 4 5
M  V30 5 1 5 6
M  V30 6 1 6 7
M  V30 7 1 7 8
M  V30 8 2 7 9
M  V30 9 1 5 10
M  V30 10 2 10 11
M  V30 11 1 10 12
M  V30 12 1 12 13
M  V30 13 1 13 14
M  V30 14 1 14 15
M  V30 15 2 15 16
M  V30 16 1 15 17
M  V30 17 1 17 18
M  V30 18 1 18 19
M  V30 19 1 19 20
M  V30 20 1 20 21
M  V30 21 2 21 22
M  V30 22 1 22 23
M  V30 23 1 23 24
M  V30 24 2 24 25
M  V30 25 1 24 26
M  V30 26 1 26 27
M  V30 27 1 27 28
M  V30 28 1 28 29
M  V30 29 1 29 30
M  V30 30 1 30 31
M  V30 31 2 31 32
M  V30 32 1 32 33
M  V30 33 2 33 34
M  V30 34 1 34 35
M  V30 35 2 35 36
M  V30 36 1 26 37
M  V30 37 1 37 38
M  V30 38 2 38 39
M  V30 39 1 38 40
M  V30 40 1 40 41
M  V30 41 1 41 42
M  V30 42 1 42 43
M  V30 43 1 43 44
M  V30 44 1 44 45
M  V30 45 1 45 46
M  V30 46 2 45 47 CFG=2
M  V30 47 1 40 48
M  V30 48 1 48 49
M  V30 49 2 49 50
M  V30 50 1 49 51
M  V30 51 1 51 52
M  V30 52 1 51 53
M  V30 53 1 53 54
M  V30 54 2 54 55
M  V30 55 1 55 56
M  V30 56 2 56 57
M  V30 57 1 57 58
M  V30 58 2 58 59
M  V30 59 1 59 60
M  V30 60 2 60 61
M  V30 61 1 61 62
M  V30 62 2 62 63
M  V30 63 1 22 64
M  V30 64 2 64 65
M  V30 65 1 64 66
M  V30 66 1 66 67
M  V30 67 2 67 68
M  V30 68 1 67 69
M  V30 69 1 69 70
M  V30 70 1 70 71
M  V30 71 1 71 72
M  V30 72 2 72 73
M  V30 73 1 73 74
M  V30 74 2 74 75
M  V30 75 1 69 76
M  V30 76 1 76 77
M  V30 77 2 77 78
M  V30 78 1 77 13
M  V30 79 1 36 28
M  V30 80 1 63 54
M  V30 81 1 75 71
M  V30 82 1 36 31
M  V30 83 1 62 57
M  V30 84 1 1 79
M  V30 85 1 1 80
M  V30 86 1 1 81
M  V30 87 1 2 82
M  V30 88 1 2 83
M  V30 89 1 3 84
M  V30 90 1 3 85
M  V30 91 1 4 86
M  V30 92 1 4 87
M  V30 93 1 5 88
M  V30 94 1 6 89
M  V30 95 1 8 90
M  V30 96 1 8 91
M  V30 97 1 8 92
M  V30 98 1 12 93
M  V30 99 1 13 94
M  V30 100 1 14 95
M  V30 101 1 14 96
M  V30 102 1 17 97
M  V30 103 1 18 98
M  V30 104 1 18 99
M  V30 105 1 19 100
M  V30 106 1 19 101
M  V30 107 1 20 102
M  V30 108 1 20 103
M  V30 109 1 21 104
M  V30 110 1 23 105
M  V30 111 1 26 106
M  V30 112 1 27 107
M  V30 113 1 27 108
M  V30 114 1 28 109
M  V30 115 1 29 110
M  V30 116 1 29 111
M  V30 117 1 30 112
M  V30 118 1 32 113
M  V30 119 1 33 114
M  V30 120 1 34 115
M  V30 121 1 35 116
M  V30 122 1 37 117
M  V30 123 1 40 118
M  V30 124 1 41 119
M  V30 125 1 41 120
M  V30 126 1 42 121
M  V30 127 1 42 122
M  V30 128 1 43 123
M  V30 129 1 43 124
M  V30 130 1 44 125
M  V30 131 1 46 126
M  V30 132 1 46 127
M  V30 133 1 47 128
M  V30 134 1 48 129
M  V30 135 1 51 130
M  V30 136 1 52 131
M  V30 137 1 52 132
M  V30 138 1 53 133
M  V30 139 1 53 134
M  V30 140 1 55 135
M  V30 141 1 56 136
M  V30 142 1 58 137
M  V30 143 1 59 138
M  V30 144 1 60 139
M  V30 145 1 61 140
M  V30 146 1 63 141
M  V30 147 1 66 142
M  V30 148 1 69 143
M  V30 149 1 70 144
M  V30 150 1 70 145
M  V30 151 1 71 146
M  V30 152 1 72 147
M  V30 153 1 74 148
M  V30 154 1 76 149
M  V30 END BOND
M  V30 END CTAB
M  END
