
     RDKit          3D

  0  0  0  0  0  0  0  0  0  0999 V3000
M  V30 BEGIN CTAB
M  V30 COUNTS 27 27 0 0 0
M  V30 BEGIN ATOM
M  V30 1 N 2.79536 -1.25374 0.655224 0
M  V30 2 C 1.40701 -1.21702 0.253692 0
M  V30 3 C 0.863133 0.179479 0.185789 0
M  V30 4 N -0.498367 0.278748 -0.206569 0
M  V30 5 C -0.859398 -0.177208 -1.50603 0
M  V30 6 C -2.20975 -0.573191 -0.946481 0
M  V30 7 C -1.48355 -0.541606 0.407096 0
M  V30 8 C -2.34136 0.204844 1.40972 0
M  V30 9 C 1.68111 1.1038 -0.661419 0
M  V30 10 N 1.03888 2.40676 -0.634699 0
M  V30 11 H 2.9436 -2.15467 1.16056 0
M  V30 12 H 3.04279 -0.49059 1.32061 0
M  V30 13 H 0.833576 -1.79165 1.0337 0
M  V30 14 H 1.29342 -1.79693 -0.679454 0
M  V30 15 H 0.930107 0.586469 1.23837 0
M  V30 16 H -0.309028 -1.03945 -1.90841 0
M  V30 17 H -0.926771 0.615751 -2.29738 0
M  V30 18 H -2.49793 -1.6142 -1.1751 0
M  V30 19 H -2.99429 0.179648 -1.03544 0
M  V30 20 H -1.1647 -1.5288 0.75833 0
M  V30 21 H -2.49532 1.23478 1.06639 0
M  V30 22 H -1.91407 0.140393 2.42629 0
M  V30 23 H -3.35168 -0.286063 1.40306 0
M  V30 24 H 2.71828 1.23231 -0.306039 0
M  V30 25 H 1.73449 0.797584 -1.72448 0
M  V30 26 H 1.63756 3.10792 -0.119199 0
M  V30 27 H 0.126919 2.39664 -0.11812 0
M  V30 END ATOM
M  V30 BEGIN BOND
M  V30 1 1 1 2
M  V30 2 1 2 3
M  V30 3 1 3 4
M  V30 4 1 4 5
M  V30 5 1 5 6
M  V30 6 1 6 7
M  V30 7 1 7 8
M  V30 8 1 3 9
M  V30 9 1 9 10
M  V30 10 1 7 4
M  V30 11 1 1 11
M  V30 12 1 1 12
M  V30 13 1 2 13
M  V30 14 1 2 14
M  V30 15 1 3 15
M  V30 16 1 5 16
M  V30 17 1 5 17
M  V30 18 1 6 18
M  V30 19 1 6 19
M  V30 20 1 7 20
M  V30 21 1 8 21
M  V30 22 1 8 22
M  V30 23 1 8 23
M  V30 24 1 9 24
M  V30 25 1 9 25
M  V30 26 1 10 26
M  V30 27 1 10 27
M  V30 END BOND
M  V30 END CTAB
M  END
