
     RDKit          3D

  0  0  0  0  0  0  0  0  0  0999 V3000
M  V30 BEGIN CTAB
M  V30 COUNTS 18 18 0 0 0
M  V30 BEGIN ATOM
M  V30 1 C -2.35407 -0.71955 0.243196 0
M  V30 2 C -1.34399 0.069178 1.03736 0
M  V30 3 N -0.0249941 0.0375834 0.400822 0
M  V30 4 N 0.93718 -0.845649 0.603765 0
M  V30 5 C 2.02688 -0.588446 -0.141883 0
M  V30 6 N 1.68735 0.534061 -0.842492 0
M  V30 7 C 0.440326 0.90991 -0.50908 0
M  V30 8 N -0.239263 2.03848 -1.04393 0
M  V30 9 N 3.24679 -1.3089 -0.194403 0
M  V30 10 H -1.96583 -1.72744 0.0257873 0
M  V30 11 H -2.61651 -0.145644 -0.6694 0
M  V30 12 H -3.26438 -0.80199 0.843677 0
M  V30 13 H -1.30994 -0.374166 2.06077 0
M  V30 14 H -1.67866 1.10391 1.09135 0
M  V30 15 H -0.925408 1.98334 -1.83263 0
M  V30 16 H -0.057955 2.99145 -0.640173 0
M  V30 17 H 3.29993 -2.33523 -0.0594787 0
M  V30 18 H 4.14254 -0.820905 -0.373255 0
M  V30 END ATOM
M  V30 BEGIN BOND
M  V30 1 1 1 2
M  V30 2 1 2 3
M  V30 3 1 3 4
M  V30 4 2 4 5
M  V30 5 1 5 6
M  V30 6 2 6 7
M  V30 7 1 7 8
M  V30 8 1 5 9
M  V30 9 1 7 3
M  V30 10 1 1 10
M  V30 11 1 1 11
M  V30 12 1 1 12
M  V30 13 1 2 13
M  V30 14 1 2 14
M  V30 15 1 8 15
M  V30 16 1 8 16
M  V30 17 1 9 17
M  V30 18 1 9 18
M  V30 END BOND
M  V30 END CTAB
M  END
