
     RDKit          3D

  0  0  0  0  0  0  0  0  0  0999 V3000
M  V30 BEGIN CTAB
M  V30 COUNTS 63 66 0 0 0
M  V30 BEGIN ATOM
M  V30 1 C -8.81289 -1.2619 -0.498297 0
M  V30 2 N -7.59698 -1.15682 -1.28434 0
M  V30 3 C -6.59368 -2.10873 -0.842 0
M  V30 4 C -5.97264 -1.72311 0.463077 0
M  V30 5 N -5.67737 -0.325328 0.574185 0
M  V30 6 C -6.62601 0.642457 0.0704389 0
M  V30 7 C -7.07843 0.197216 -1.29155 0
M  V30 8 C -4.46734 0.12313 1.17575 0
M  V30 9 O -3.69336 -0.770921 1.59741 0
M  V30 10 C -4.15511 1.54741 1.29165 0
M  V30 11 C -2.81609 1.90801 1.81623 0
M  V30 12 C -1.66212 1.44714 1.01309 0
M  V30 13 C -1.17428 2.25861 -0.0269697 0
M  V30 14 C -0.0954816 1.85575 -0.770912 0
M  V30 15 C 0.537385 0.665563 -0.531662 0
M  V30 16 C 0.0488986 -0.116751 0.488426 0
M  V30 17 C 0.683922 -1.42889 0.811007 0
M  V30 18 S 1.98317 -1.13592 2.04522 0
M  V30 19 C 3.31224 -0.158711 1.36079 0
M  V30 20 N 4.37357 -0.733786 0.745875 0
M  V30 21 C 5.37798 0.016913 0.229032 0
M  V30 22 C 6.50478 -0.630526 -0.414369 0
M  V30 23 C 7.1117 -1.69326 0.265197 0
M  V30 24 C 8.18139 -2.3893 -0.258474 0
M  V30 25 C 8.70279 -2.05709 -1.49568 0
M  V30 26 N 9.80313 -2.79558 -2.00168 0
M  V30 27 C 8.10568 -1.01146 -2.1645 0
M  V30 28 C 7.02951 -0.315809 -1.63175 0
M  V30 29 C 5.29113 1.37098 0.345738 0
M  V30 30 C 6.31619 2.23228 -0.155092 0
M  V30 31 N 7.14549 2.94456 -0.539756 0
M  V30 32 C 4.21365 2.00146 0.972028 0
M  V30 33 N 4.13413 3.40764 1.08727 0
M  V30 34 N 3.25557 1.18248 1.45957 0
M  V30 35 N -1.00059 0.294106 1.1985 0
M  V30 36 H -9.63182 -1.67065 -1.13459 0
M  V30 37 H -9.16 -0.306898 -0.0884648 0
M  V30 38 H -8.68774 -1.95746 0.358534 0
M  V30 39 H -5.84623 -2.18442 -1.66144 0
M  V30 40 H -7.1283 -3.0851 -0.699306 0
M  V30 41 H -6.62961 -2.01415 1.30862 0
M  V30 42 H -5.03474 -2.32693 0.575775 0
M  V30 43 H -6.21235 1.66154 -0.0416085 0
M  V30 44 H -7.55676 0.66163 0.713119 0
M  V30 45 H -6.25704 0.247876 -2.02018 0
M  V30 46 H -7.91156 0.848166 -1.64105 0
M  V30 47 H -4.97758 2.04079 1.88781 0
M  V30 48 H -4.23492 1.99455 0.267214 0
M  V30 49 H -2.71022 1.61344 2.89241 0
M  V30 50 H -2.76284 3.03838 1.81333 0
M  V30 51 H -1.69529 3.20022 -0.196428 0
M  V30 52 H 0.279444 2.49019 -1.578 0
M  V30 53 H 1.39721 0.305941 -1.09724 0
M  V30 54 H 1.07224 -1.88983 -0.109513 0
M  V30 55 H -0.0442602 -2.11906 1.26176 0
M  V30 56 H 6.70156 -1.95584 1.24068 0
M  V30 57 H 8.64346 -3.21632 0.284977 0
M  V30 58 H 10.7823 -2.4487 -1.952 0
M  V30 59 H 9.64763 -3.72409 -2.44438 0
M  V30 60 H 8.50712 -0.746919 -3.1296 0
M  V30 61 H 6.56267 0.506481 -2.1846 0
M  V30 62 H 4.73685 4.01466 0.519785 0
M  V30 63 H 3.46082 3.8227 1.75091 0
M  V30 END ATOM
M  V30 BEGIN BOND
M  V30 1 1 1 2
M  V30 2 1 2 3
M  V30 3 1 3 4
M  V30 4 1 4 5
M  V30 5 1 5 6
M  V30 6 1 6 7
M  V30 7 1 5 8
M  V30 8 2 8 9
M  V30 9 1 8 10
M  V30 10 1 10 11
M  V30 11 1 11 12
M  V30 12 2 12 13
M  V30 13 1 13 14
M  V30 14 2 14 15
M  V30 15 1 15 16
M  V30 16 1 16 17
M  V30 17 1 17 18
M  V30 18 1 18 19
M  V30 19 2 19 20
M  V30 20 1 20 21
M  V30 21 1 21 22
M  V30 22 2 22 23
M  V30 23 1 23 24
M  V30 24 2 24 25
M  V30 25 1 25 26
M  V30 26 1 25 27
M  V30 27 2 27 28
M  V30 28 2 21 29
M  V30 29 1 29 30
M  V30 30 3 30 31
M  V30 31 1 29 32
M  V30 32 1 32 33
M  V30 33 2 32 34
M  V30 34 2 16 35
M  V30 35 1 7 2
M  V30 36 1 35 12
M  V30 37 1 34 19
M  V30 38 1 28 22
M  V30 39 1 1 36
M  V30 40 1 1 37
M  V30 41 1 1 38
M  V30 42 1 3 39
M  V30 43 1 3 40
M  V30 44 1 4 41
M  V30 45 1 4 42
M  V30 46 1 6 43
M  V30 47 1 6 44
M  V30 48 1 7 45
M  V30 49 1 7 46
M  V30 50 1 10 47
M  V30 51 1 10 48
M  V30 52 1 11 49
M  V30 53 1 11 50
M  V30 54 1 13 51
M  V30 55 1 14 52
M  V30 56 1 15 53
M  V30 57 1 17 54
M  V30 58 1 17 55
M  V30 59 1 23 56
M  V30 60 1 24 57
M  V30 61 1 26 58
M  V30 62 1 26 59
M  V30 63 1 27 60
M  V30 64 1 28 61
M  V30 65 1 33 62
M  V30 66 1 33 63
M  V30 END BOND
M  V30 END CTAB
M  END
