
     RDKit          3D

  0  0  0  0  0  0  0  0  0  0999 V3000
M  V30 BEGIN CTAB
M  V30 COUNTS 25 25 0 0 0
M  V30 BEGIN ATOM
M  V30 1 C 3.65755 -1.36171 -0.148139 0
M  V30 2 S 2.19406 -0.957747 -1.19513 0
M  V30 3 C 1.49847 0.514878 -0.564481 0
M  V30 4 C 0.12768 1.0062 -0.834511 0
M  V30 5 C -0.928278 0.0712051 -0.359973 0
M  V30 6 C -0.794987 -1.2803 -0.4342 0
M  V30 7 C -1.78146 -2.11277 0.0896671 0
M  V30 8 Cl -1.63636 -3.83991 -0.00835857 0
M  V30 9 C -2.89148 -1.53121 0.673282 0
M  V30 10 N -3.04521 -0.213586 0.754596 0
M  V30 11 C -2.05405 0.592419 0.234964 0
M  V30 12 N -2.28741 2.01675 0.278996 0
M  V30 13 N -0.0359753 2.25964 -0.149242 0
M  V30 14 H 4.15396 -0.421699 0.171017 0
M  V30 15 H 4.34342 -2.01143 -0.676797 0
M  V30 16 H 3.22455 -1.83019 0.771871 0
M  V30 17 H 1.54373 0.468769 0.599462 0
M  V30 18 H 2.20212 1.38708 -0.780481 0
M  V30 19 H -0.0581822 1.19543 -1.93213 0
M  V30 20 H 0.0546202 -1.80446 -0.921091 0
M  V30 21 H -3.66285 -2.19162 1.09079 0
M  V30 22 H -2.24373 2.5609 1.15753 0
M  V30 23 H -2.51477 2.48822 -0.649617 0
M  V30 24 H 0.713058 2.91632 -0.52609 0
M  V30 25 H 0.221533 2.07881 0.844902 0
M  V30 END ATOM
M  V30 BEGIN BOND
M  V30 1 1 1 2
M  V30 2 1 2 3
M  V30 3 1 3 4
M  V30 4 1 4 5
M  V30 5 2 5 6
M  V30 6 1 6 7
M  V30 7 1 7 8
M  V30 8 2 7 9
M  V30 9 1 9 10
M  V30 10 2 10 11
M  V30 11 1 11 12
M  V30 12 1 4 13
M  V30 13 1 11 5
M  V30 14 1 1 14
M  V30 15 1 1 15
M  V30 16 1 1 16
M  V30 17 1 3 17
M  V30 18 1 3 18
M  V30 19 1 4 19
M  V30 20 1 6 20
M  V30 21 1 9 21
M  V30 22 1 12 22
M  V30 23 1 12 23
M  V30 24 1 13 24
M  V30 25 1 13 25
M  V30 END BOND
M  V30 END CTAB
M  END
