
     RDKit          3D

  0  0  0  0  0  0  0  0  0  0999 V3000
M  V30 BEGIN CTAB
M  V30 COUNTS 32 31 0 0 0
M  V30 BEGIN ATOM
M  V30 1 C -4.09108 -0.259587 -0.604726 0 CFG=1
M  V30 2 N -5.03475 0.788627 -1.07493 0
M  V30 3 C -2.92091 -0.14691 -1.51635 0
M  V30 4 S -1.56421 -1.22877 -1.28874 0
M  V30 5 C -0.461563 -0.973832 0.0636046 0
M  V30 6 C 0.282959 0.346429 -0.121672 0
M  V30 7 S 1.40718 0.638441 1.24508 0
M  V30 8 C 2.76123 -0.555735 1.30824 0
M  V30 9 C 3.6372 -0.356229 0.0944521 0 CFG=2
M  V30 10 N 4.7425 -1.29583 0.0992761 0
M  V30 11 C 4.11794 1.04818 0.0478798 0
M  V30 12 O 5.45305 1.35572 0.0418466 0
M  V30 13 O 3.24993 1.95675 0.0138432 0
M  V30 14 C -3.88147 0.00459593 0.800586 0
M  V30 15 O -4.0445 1.30512 1.31026 0
M  V30 16 O -3.54651 -0.853437 1.68016 0
M  V30 17 H -4.65045 -1.22664 -0.755531 0
M  V30 18 H -4.95553 0.854954 -2.10755 0
M  V30 19 H -4.80572 1.68054 -0.612182 0
M  V30 20 H -3.33458 -0.225666 -2.57317 0
M  V30 21 H -2.5552 0.925143 -1.42856 0
M  V30 22 H -0.942965 -0.974933 1.02802 0
M  V30 23 H 0.348493 -1.78298 0.0820771 0
M  V30 24 H 0.873503 0.340167 -1.06739 0
M  V30 25 H -0.430575 1.18698 -0.20834 0
M  V30 26 H 2.40168 -1.58096 1.41504 0
M  V30 27 H 3.35894 -0.306506 2.22349 0
M  V30 28 H 3.06063 -0.532863 -0.836702 0
M  V30 29 H 4.44971 -2.26526 0.237683 0
M  V30 30 H 5.38298 -1.09766 -0.670439 0
M  V30 31 H 5.88112 1.71879 0.89529 0
M  V30 32 H -4.18903 1.51336 2.27946 0
M  V30 END ATOM
M  V30 BEGIN BOND
M  V30 1 1 1 2
M  V30 2 1 1 3
M  V30 3 1 3 4
M  V30 4 1 4 5
M  V30 5 1 5 6
M  V30 6 1 6 7
M  V30 7 1 7 8
M  V30 8 1 8 9
M  V30 9 1 9 10
M  V30 10 1 9 11
M  V30 11 1 11 12
M  V30 12 2 11 13
M  V30 13 1 1 14
M  V30 14 1 14 15
M  V30 15 2 14 16
M  V30 16 1 1 17 CFG=1
M  V30 17 1 2 18
M  V30 18 1 2 19
M  V30 19 1 3 20
M  V30 20 1 3 21
M  V30 21 1 5 22
M  V30 22 1 5 23
M  V30 23 1 6 24
M  V30 24 1 6 25
M  V30 25 1 8 26
M  V30 26 1 8 27
M  V30 27 1 9 28 CFG=3
M  V30 28 1 10 29
M  V30 29 1 10 30
M  V30 30 1 12 31
M  V30 31 1 15 32
M  V30 END BOND
M  V30 END CTAB
M  END
