
     RDKit          3D

  0  0  0  0  0  0  0  0  0  0999 V3000
M  V30 BEGIN CTAB
M  V30 COUNTS 25 25 0 0 0
M  V30 BEGIN ATOM
M  V30 1 C 4.36716 0.39611 -0.00647876 0
M  V30 2 O 3.27923 -0.135102 0.724081 0
M  V30 3 C 1.96476 -0.00168694 0.322671 0
M  V30 4 O 1.74535 0.631411 -0.755081 0
M  V30 5 C 0.832969 -0.566352 1.10294 0
M  V30 6 C -0.470883 -0.284007 0.454754 0
M  V30 7 C -1.32081 0.688945 0.927712 0
M  V30 8 C -2.53847 0.98234 0.353077 0
M  V30 9 N -3.40177 2.00334 0.869926 0
M  V30 10 C -2.88124 0.234252 -0.753813 0
M  V30 11 C -2.06935 -0.746659 -1.26429 0
M  V30 12 C -0.863224 -1.0007 -0.653403 0
M  V30 13 N -0.0146508 -2.03832 -1.20092 0
M  V30 14 Cl -2.54632 -1.68319 -2.68757 0
M  V30 15 H 4.34657 1.505 0.0363726 0
M  V30 16 H 5.28767 -0.00902847 0.447004 0
M  V30 17 H 4.2838 0.14118 -1.09931 0
M  V30 18 H 0.818373 -0.184637 2.15103 0
M  V30 19 H 0.997558 -1.65712 1.17126 0
M  V30 20 H -1.06192 1.29657 1.81167 0
M  V30 21 H -4.43281 1.83655 0.957585 0
M  V30 22 H -3.0469 2.91684 1.16701 0
M  V30 23 H -3.83992 0.432368 -1.24474 0
M  V30 24 H 0.366111 -1.85343 -2.13849 0
M  V30 25 H 0.198717 -2.90469 -0.692987 0
M  V30 END ATOM
M  V30 BEGIN BOND
M  V30 1 1 1 2
M  V30 2 1 2 3
M  V30 3 2 3 4
M  V30 4 1 3 5
M  V30 5 1 5 6
M  V30 6 2 6 7
M  V30 7 1 7 8
M  V30 8 1 8 9
M  V30 9 2 8 10
M  V30 10 1 10 11
M  V30 11 2 11 12
M  V30 12 1 12 13
M  V30 13 1 11 14
M  V30 14 1 12 6
M  V30 15 1 1 15
M  V30 16 1 1 16
M  V30 17 1 1 17
M  V30 18 1 5 18
M  V30 19 1 5 19
M  V30 20 1 7 20
M  V30 21 1 9 21
M  V30 22 1 9 22
M  V30 23 1 10 23
M  V30 24 1 13 24
M  V30 25 1 13 25
M  V30 END BOND
M  V30 END CTAB
M  END
