
     RDKit          3D

  0  0  0  0  0  0  0  0  0  0999 V3000
M  V30 BEGIN CTAB
M  V30 COUNTS 30 30 0 0 0
M  V30 BEGIN ATOM
M  V30 1 C 3.12879 -0.970764 -0.287001 0
M  V30 2 C 1.74887 -0.702945 0.328718 0
M  V30 3 C 1.81985 0.64616 0.971838 0
M  V30 4 N 2.13657 1.70122 0.0312345 0
M  V30 5 C 0.754814 -0.759596 -0.80428 0
M  V30 6 C -0.628199 -0.523315 -0.389762 0
M  V30 7 C -1.22696 0.687691 -0.644714 0
M  V30 8 C -2.54906 0.910943 -0.247649 0
M  V30 9 C -3.19474 2.20268 -0.516844 0
M  V30 10 C -3.26691 -0.0780485 0.40298 0
M  V30 11 N -2.65377 -1.26274 0.642422 0
M  V30 12 C -1.37115 -1.47958 0.257266 0
M  V30 13 N -0.787274 -2.72379 0.530662 0
M  V30 14 H 3.13913 -0.495335 -1.30752 0
M  V30 15 H 3.93094 -0.465099 0.278576 0
M  V30 16 H 3.29107 -2.04058 -0.434579 0
M  V30 17 H 1.57255 -1.45442 1.10931 0
M  V30 18 H 0.898232 0.863276 1.55391 0
M  V30 19 H 2.65691 0.600411 1.72117 0
M  V30 20 H 1.85742 2.60598 0.513214 0
M  V30 21 H 3.18962 1.77508 -0.0470809 0
M  V30 22 H 0.83983 -1.75744 -1.31275 0
M  V30 23 H 1.10977 -0.0294749 -1.57099 0
M  V30 24 H -0.748578 1.51593 -1.14452 0
M  V30 25 H -2.61321 2.85523 -1.17102 0
M  V30 26 H -3.4344 2.66475 0.470467 0
M  V30 27 H -4.19324 2.04648 -1.00785 0
M  V30 28 H -4.28995 0.0777318 0.716954 0
M  V30 29 H -0.511116 -3.43455 -0.173324 0
M  V30 30 H -0.605802 -2.97589 1.53117 0
M  V30 END ATOM
M  V30 BEGIN BOND
M  V30 1 1 1 2
M  V30 2 1 2 3
M  V30 3 1 3 4
M  V30 4 1 2 5
M  V30 5 1 5 6
M  V30 6 2 6 7
M  V30 7 1 7 8
M  V30 8 1 8 9
M  V30 9 2 8 10
M  V30 10 1 10 11
M  V30 11 2 11 12
M  V30 12 1 12 13
M  V30 13 1 12 6
M  V30 14 1 1 14
M  V30 15 1 1 15
M  V30 16 1 1 16
M  V30 17 1 2 17
M  V30 18 1 3 18
M  V30 19 1 3 19
M  V30 20 1 4 20
M  V30 21 1 4 21
M  V30 22 1 5 22
M  V30 23 1 5 23
M  V30 24 1 7 24
M  V30 25 1 9 25
M  V30 26 1 9 26
M  V30 27 1 9 27
M  V30 28 1 10 28
M  V30 29 1 13 29
M  V30 30 1 13 30
M  V30 END BOND
M  V30 END CTAB
M  END
