
     RDKit          3D

  0  0  0  0  0  0  0  0  0  0999 V3000
M  V30 BEGIN CTAB
M  V30 COUNTS 23 23 0 0 0
M  V30 BEGIN ATOM
M  V30 1 F -4.29029 1.55346 -0.644493 0
M  V30 2 C -2.97771 1.37539 -0.185104 0
M  V30 3 C -2.72738 -0.0949645 -0.040642 0
M  V30 4 N -1.42449 -0.448457 0.42413 0
M  V30 5 C -0.213858 -0.159514 -0.24693 0
M  V30 6 N -0.173104 0.492394 -1.43147 0
M  V30 7 C 0.981973 0.760462 -2.06492 0
M  V30 8 C 2.18842 0.375367 -1.52341 0
M  V30 9 C 2.19405 -0.287411 -0.325166 0
M  V30 10 C 0.992063 -0.542394 0.290648 0
M  V30 11 N 1.03074 -1.23594 1.54024 0
M  V30 12 N 3.41916 -0.71045 0.282588 0
M  V30 13 F -2.80827 2.01376 1.01363 0
M  V30 14 H -2.3176 1.82282 -0.949106 0
M  V30 15 H -2.96866 -0.565225 -1.0377 0
M  V30 16 H -3.50611 -0.489849 0.636706 0
M  V30 17 H -1.35244 -0.971068 1.34878 0
M  V30 18 H 1.02374 1.28158 -3.01297 0
M  V30 19 H 3.14603 0.565074 -1.98971 0
M  V30 20 H 1.06979 -2.28209 1.47968 0
M  V30 21 H 1.01981 -0.716319 2.42534 0
M  V30 22 H 3.43421 -1.62313 0.751929 0
M  V30 23 H 4.25994 -0.113516 0.248097 0
M  V30 END ATOM
M  V30 BEGIN BOND
M  V30 1 1 1 2
M  V30 2 1 2 3
M  V30 3 1 3 4
M  V30 4 1 4 5
M  V30 5 2 5 6
M  V30 6 1 6 7
M  V30 7 2 7 8
M  V30 8 1 8 9
M  V30 9 2 9 10
M  V30 10 1 10 11
M  V30 11 1 9 12
M  V30 12 1 2 13
M  V30 13 1 10 5
M  V30 14 1 2 14
M  V30 15 1 3 15
M  V30 16 1 3 16
M  V30 17 1 4 17
M  V30 18 1 7 18
M  V30 19 1 8 19
M  V30 20 1 11 20
M  V30 21 1 11 21
M  V30 22 1 12 22
M  V30 23 1 12 23
M  V30 END BOND
M  V30 END CTAB
M  END
