
     RDKit          3D

  0  0  0  0  0  0  0  0  0  0999 V3000
M  V30 BEGIN CTAB
M  V30 COUNTS 46 47 0 0 0
M  V30 BEGIN ATOM
M  V30 1 O -0.0501281 -2.01664 1.19202 0
M  V30 2 C 0.363471 -0.93642 0.635408 0
M  V30 3 C 1.80488 -0.784071 0.570202 0
M  V30 4 C 2.66598 -1.73509 1.07232 0
M  V30 5 C 4.03298 -1.55468 0.99184 0
M  V30 6 C 4.56226 -0.418328 0.406908 0
M  V30 7 C 3.69383 0.525632 -0.0916184 0
M  V30 8 C 2.32331 0.345505 -0.0113143 0
M  V30 9 N 4.27521 1.68192 -0.686402 0
M  V30 10 S 6.26785 -0.241037 0.331123 0
M  V30 11 O 6.651 1.02595 1.07932 0
M  V30 12 O 6.96083 -1.37643 1.025 0
M  V30 13 N 6.89611 -0.104137 -1.24904 0
M  V30 14 N -0.574373 0.00432083 0.138196 0
M  V30 15 C -1.97885 -0.283746 0.274211 0
M  V30 16 C -2.6972 0.790605 1.10158 0
M  V30 17 C -4.11261 0.562616 0.596079 0
M  V30 18 O -4.02982 0.19739 -0.719226 0
M  V30 19 C -2.74311 -0.178778 -1.01059 0
M  V30 20 C -2.76627 -1.50505 -1.7379 0
M  V30 21 C -2.1566 0.854891 -1.94948 0
M  V30 22 C -4.69684 -0.548397 1.45732 0
M  V30 23 C -4.96779 1.78947 0.709405 0
M  V30 24 H 2.30315 -2.65112 1.54447 0
M  V30 25 H 4.71361 -2.31937 1.39546 0
M  V30 26 H 1.73949 1.15022 -0.434769 0
M  V30 27 H 4.05409 2.63498 -0.31825 0
M  V30 28 H 4.94083 1.6194 -1.50862 0
M  V30 29 H 7.3221 -0.959513 -1.62746 0
M  V30 30 H 7.38939 0.768752 -1.4453 0
M  V30 31 H -0.233491 0.86659 -0.306021 0
M  V30 32 H -2.152 -1.23816 0.767845 0
M  V30 33 H -2.59739 0.622956 2.17495 0
M  V30 34 H -2.37956 1.8115 0.780607 0
M  V30 35 H -3.09468 -2.27767 -1.01008 0
M  V30 36 H -3.52003 -1.48065 -2.54576 0
M  V30 37 H -1.76078 -1.74723 -2.17202 0
M  V30 38 H -2.78131 0.853659 -2.86776 0
M  V30 39 H -1.12646 0.653555 -2.23997 0
M  V30 40 H -2.26301 1.89035 -1.52768 0
M  V30 41 H -5.23565 -1.30243 0.831717 0
M  V30 42 H -3.92629 -1.06178 2.05957 0
M  V30 43 H -5.42827 -0.104499 2.15868 0
M  V30 44 H -6.03154 1.44074 0.741474 0
M  V30 45 H -4.79135 2.33957 1.63665 0
M  V30 46 H -4.86495 2.39465 -0.21309 0
M  V30 END ATOM
M  V30 BEGIN BOND
M  V30 1 2 1 2
M  V30 2 1 2 3
M  V30 3 2 3 4
M  V30 4 1 4 5
M  V30 5 2 5 6
M  V30 6 1 6 7
M  V30 7 2 7 8
M  V30 8 1 7 9
M  V30 9 1 6 10
M  V30 10 2 10 11
M  V30 11 2 10 12
M  V30 12 1 10 13
M  V30 13 1 2 14
M  V30 14 1 14 15
M  V30 15 1 15 16
M  V30 16 1 16 17
M  V30 17 1 17 18
M  V30 18 1 18 19
M  V30 19 1 19 20
M  V30 20 1 19 21
M  V30 21 1 17 22
M  V30 22 1 17 23
M  V30 23 1 8 3
M  V30 24 1 19 15
M  V30 25 1 4 24
M  V30 26 1 5 25
M  V30 27 1 8 26
M  V30 28 1 9 27
M  V30 29 1 9 28
M  V30 30 1 13 29
M  V30 31 1 13 30
M  V30 32 1 14 31
M  V30 33 1 15 32
M  V30 34 1 16 33
M  V30 35 1 16 34
M  V30 36 1 20 35
M  V30 37 1 20 36
M  V30 38 1 20 37
M  V30 39 1 21 38
M  V30 40 1 21 39
M  V30 41 1 21 40
M  V30 42 1 22 41
M  V30 43 1 22 42
M  V30 44 1 22 43
M  V30 45 1 23 44
M  V30 46 1 23 45
M  V30 47 1 23 46
M  V30 END BOND
M  V30 END CTAB
M  END
