
     RDKit          3D

  0  0  0  0  0  0  0  0  0  0999 V3000
M  V30 BEGIN CTAB
M  V30 COUNTS 21 22 0 0 0
M  V30 BEGIN ATOM
M  V30 1 N -3.16633 1.47865 -1.63555 0
M  V30 2 C -2.30418 0.693172 -0.839104 0
M  V30 3 N -2.78718 -0.254391 -0.0109165 0
M  V30 4 C -1.9944 -1.01989 0.761172 0
M  V30 5 N -2.60881 -1.98416 1.59325 0
M  V30 6 N -0.673401 -0.804054 0.67799 0
M  V30 7 C -0.132311 0.123758 -0.126996 0
M  V30 8 N -0.967269 0.853715 -0.870113 0
M  V30 9 C 1.31124 0.318965 -0.180573 0
M  V30 10 C 2.18217 -0.428982 0.582118 0
M  V30 11 C 3.55093 -0.222442 0.51158 0
M  V30 12 C 4.06078 0.74353 -0.331151 0
M  V30 13 N 3.16588 1.44359 -1.05196 0
M  V30 14 N 1.85649 1.24708 -0.985454 0
M  V30 15 H -4.02841 1.86852 -1.21971 0
M  V30 16 H -2.96227 1.67832 -2.62867 0
M  V30 17 H -2.20326 -2.1635 2.53228 0
M  V30 18 H -3.45408 -2.5142 1.28492 0
M  V30 19 H 1.76894 -1.18909 1.24419 0
M  V30 20 H 4.25103 -0.802385 1.10512 0
M  V30 21 H 5.13446 0.933791 -0.412436 0
M  V30 END ATOM
M  V30 BEGIN BOND
M  V30 1 1 1 2
M  V30 2 2 2 3
M  V30 3 1 3 4
M  V30 4 1 4 5
M  V30 5 2 4 6
M  V30 6 1 6 7
M  V30 7 2 7 8
M  V30 8 1 7 9
M  V30 9 2 9 10
M  V30 10 1 10 11
M  V30 11 2 11 12
M  V30 12 1 12 13
M  V30 13 2 13 14
M  V30 14 1 8 2
M  V30 15 1 14 9
M  V30 16 1 1 15
M  V30 17 1 1 16
M  V30 18 1 5 17
M  V30 19 1 5 18
M  V30 20 1 10 19
M  V30 21 1 11 20
M  V30 22 1 12 21
M  V30 END BOND
M  V30 END CTAB
M  END
