
     RDKit          3D

  0  0  0  0  0  0  0  0  0  0999 V3000
M  V30 BEGIN CTAB
M  V30 COUNTS 58 61 0 0 0
M  V30 BEGIN ATOM
M  V30 1 N 3.46153 -0.201848 4.8351 0
M  V30 2 C 2.76274 -0.327755 3.61174 0
M  V30 3 N 3.02717 0.372038 2.47802 0
M  V30 4 C 2.25226 0.30643 1.39864 0
M  V30 5 C 2.46584 1.2257 0.220031 0
M  V30 6 O 3.16337 0.643819 -0.691844 0
M  V30 7 C 4.18154 -0.0341896 -0.981801 0
M  V30 8 C 5.58401 0.294719 -0.867716 0
M  V30 9 C 6.47348 -0.768748 -1.11941 0
M  V30 10 C 7.82835 -0.649002 -1.09828 0
M  V30 11 C 8.35282 0.585358 -0.812563 0
M  V30 12 C 7.52542 1.66722 -0.557729 0
M  V30 13 C 6.15066 1.51276 -0.586195 0
M  V30 14 C 1.14158 -0.477774 1.36867 0
M  V30 15 C 0.853038 -1.23469 2.53102 0
M  V30 16 N -0.236922 -2.14721 2.3948 0
M  V30 17 N 1.6522 -1.13211 3.58659 0
M  V30 18 C 0.173431 -0.498849 0.292746 0
M  V30 19 C -0.836033 0.464232 0.473516 0
M  V30 20 C -1.90822 0.536363 -0.332015 0
M  V30 21 C -2.04324 -0.353912 -1.38585 0
M  V30 22 N -3.30874 -0.32889 -2.05574 0
M  V30 23 C -4.16743 0.778808 -2.04534 0
M  V30 24 O -3.98186 1.91438 -1.59091 0
M  V30 25 C -5.55137 0.561769 -2.64771 0
M  V30 26 C -6.47322 0.33524 -1.46379 0
M  V30 27 C -7.79705 0.0405164 -1.64419 0
M  V30 28 C -8.61912 -0.179566 -0.530566 0
M  V30 29 C -8.08236 -0.0917452 0.731487 0
M  V30 30 C -6.76069 0.203886 0.962828 0
M  V30 31 C -5.97568 0.412677 -0.190104 0
M  V30 32 C -1.06948 -1.29612 -1.59494 0
M  V30 33 C 0.0418042 -1.34825 -0.73355 0
M  V30 34 H 4.36207 -0.58241 5.02605 0
M  V30 35 H 2.95354 0.34549 5.61155 0
M  V30 36 H 2.99011 2.17579 0.614773 0
M  V30 37 H 1.48169 1.61357 -0.0845608 0
M  V30 38 H 4.08443 -0.383848 -2.10032 0
M  V30 39 H 4.11786 -1.13002 -0.521446 0
M  V30 40 H 6.05548 -1.76018 -1.34671 0
M  V30 41 H 8.48259 -1.47468 -1.29772 0
M  V30 42 H 9.42169 0.683417 -0.792697 0
M  V30 43 H 7.93949 2.63982 -0.342215 0
M  V30 44 H 5.48398 2.34071 -0.387206 0
M  V30 45 H -0.136938 -2.99332 1.75014 0
M  V30 46 H -1.12813 -2.04057 2.89544 0
M  V30 47 H -0.736131 1.17437 1.30175 0
M  V30 48 H -2.66245 1.28593 -0.13379 0
M  V30 49 H -3.53969 -1.21626 -2.56511 0
M  V30 50 H -5.84504 1.49556 -3.16322 0
M  V30 51 H -5.48875 -0.303669 -3.30221 0
M  V30 52 H -8.17924 -0.0207625 -2.65555 0
M  V30 53 H -9.64991 -0.41568 -0.701688 0
M  V30 54 H -8.71752 -0.267396 1.60052 0
M  V30 55 H -6.30394 0.284521 1.94491 0
M  V30 56 H -4.94132 0.612625 -0.0189908 0
M  V30 57 H -1.15857 -1.99035 -2.41451 0
M  V30 58 H 0.83488 -2.08457 -0.872143 0
M  V30 END ATOM
M  V30 BEGIN BOND
M  V30 1 1 1 2
M  V30 2 2 2 3
M  V30 3 1 3 4
M  V30 4 1 4 5
M  V30 5 1 5 6
M  V30 6 1 6 7
M  V30 7 1 7 8
M  V30 8 2 8 9
M  V30 9 1 9 10
M  V30 10 2 10 11
M  V30 11 1 11 12
M  V30 12 2 12 13
M  V30 13 2 4 14
M  V30 14 1 14 15
M  V30 15 1 15 16
M  V30 16 2 15 17
M  V30 17 1 14 18
M  V30 18 2 18 19
M  V30 19 1 19 20
M  V30 20 2 20 21
M  V30 21 1 21 22
M  V30 22 1 22 23
M  V30 23 2 23 24
M  V30 24 1 23 25
M  V30 25 1 25 26
M  V30 26 2 26 27
M  V30 27 1 27 28
M  V30 28 2 28 29
M  V30 29 1 29 30
M  V30 30 2 30 31
M  V30 31 1 21 32
M  V30 32 2 32 33
M  V30 33 1 17 2
M  V30 34 1 33 18
M  V30 35 1 13 8
M  V30 36 1 31 26
M  V30 37 1 1 34
M  V30 38 1 1 35
M  V30 39 1 5 36
M  V30 40 1 5 37
M  V30 41 1 7 38
M  V30 42 1 7 39
M  V30 43 1 9 40
M  V30 44 1 10 41
M  V30 45 1 11 42
M  V30 46 1 12 43
M  V30 47 1 13 44
M  V30 48 1 16 45
M  V30 49 1 16 46
M  V30 50 1 19 47
M  V30 51 1 20 48
M  V30 52 1 22 49
M  V30 53 1 25 50
M  V30 54 1 25 51
M  V30 55 1 27 52
M  V30 56 1 28 53
M  V30 57 1 29 54
M  V30 58 1 30 55
M  V30 59 1 31 56
M  V30 60 1 32 57
M  V30 61 1 33 58
M  V30 END BOND
M  V30 END CTAB
M  END
