
     RDKit          3D

  0  0  0  0  0  0  0  0  0  0999 V3000
M  V30 BEGIN CTAB
M  V30 COUNTS 35 37 0 0 0
M  V30 BEGIN ATOM
M  V30 1 N 5.49109 0.0533496 -0.0933401 0
M  V30 2 C 4.1741 -0.177688 0.39339 0
M  V30 3 N 3.84068 -1.00947 1.39726 0
M  V30 4 N 2.53579 -0.994123 1.60134 0
M  V30 5 C 1.95322 -0.146501 0.73495 0
M  V30 6 C 2.97918 0.369888 -0.0273223 0
M  V30 7 C 0.524818 0.16134 0.626885 0 CFG=1
M  V30 8 C 0.267001 1.63193 0.34556 0
M  V30 9 C -1.13588 1.97501 0.00871177 0
M  V30 10 N -2.01487 0.847555 -0.217503 0
M  V30 11 C -1.46689 -0.355053 -0.710421 0
M  V30 12 C -0.209648 -0.712583 -0.291338 0
M  V30 13 C 0.329036 -1.87625 -0.752016 0
M  V30 14 C -0.37695 -2.70047 -1.63721 0
M  V30 15 C -1.65582 -2.29783 -2.0396 0
M  V30 16 C -2.22165 -1.12617 -1.58795 0
M  V30 17 S -3.68851 1.03424 0.116789 0
M  V30 18 O -4.51732 -0.164543 -0.158117 0
M  V30 19 O -4.24337 2.18359 -0.674878 0
M  V30 20 N -3.92066 1.40996 1.8102 0
M  V30 21 H 6.08888 -0.709943 -0.487067 0
M  V30 22 H 5.91595 1.0096 -0.0748639 0
M  V30 23 H 2.07474 -1.57766 2.34417 0
M  V30 24 H 2.92995 1.0923 -0.841665 0
M  V30 25 H 0.0803758 -0.0138598 1.65336 0
M  V30 26 H 0.596421 2.26422 1.19701 0
M  V30 27 H 0.905091 1.98463 -0.51594 0
M  V30 28 H -1.17199 2.66114 -0.870018 0
M  V30 29 H -1.58703 2.5821 0.844821 0
M  V30 30 H 1.31008 -2.15128 -0.422166 0
M  V30 31 H 0.0553468 -3.61193 -1.99243 0
M  V30 32 H -2.23977 -2.91177 -2.72899 0
M  V30 33 H -3.2119 -0.801504 -1.90343 0
M  V30 34 H -4.93287 1.39981 1.97538 0
M  V30 35 H -3.45662 0.677966 2.3863 0
M  V30 END ATOM
M  V30 BEGIN BOND
M  V30 1 1 1 2
M  V30 2 2 2 3
M  V30 3 1 3 4
M  V30 4 1 4 5
M  V30 5 2 5 6
M  V30 6 1 5 7
M  V30 7 1 7 8
M  V30 8 1 8 9
M  V30 9 1 9 10
M  V30 10 1 10 11
M  V30 11 2 11 12
M  V30 12 1 12 13
M  V30 13 2 13 14
M  V30 14 1 14 15
M  V30 15 2 15 16
M  V30 16 1 10 17
M  V30 17 2 17 18
M  V30 18 2 17 19
M  V30 19 1 17 20
M  V30 20 1 6 2
M  V30 21 1 12 7
M  V30 22 1 16 11
M  V30 23 1 1 21
M  V30 24 1 1 22
M  V30 25 1 4 23
M  V30 26 1 6 24
M  V30 27 1 7 25 CFG=1
M  V30 28 1 8 26
M  V30 29 1 8 27
M  V30 30 1 9 28
M  V30 31 1 9 29
M  V30 32 1 13 30
M  V30 33 1 14 31
M  V30 34 1 15 32
M  V30 35 1 16 33
M  V30 36 1 20 34
M  V30 37 1 20 35
M  V30 END BOND
M  V30 END CTAB
M  END
