
     RDKit          3D

  0  0  0  0  0  0  0  0  0  0999 V3000
M  V30 BEGIN CTAB
M  V30 COUNTS 36 38 0 0 0
M  V30 BEGIN ATOM
M  V30 1 C -5.00093 -1.6652 -0.796653 0
M  V30 2 O -3.62367 -1.7969 -1.08537 0
M  V30 3 C -2.70497 -0.962091 -0.483091 0
M  V30 4 C -1.35671 -1.08471 -0.760282 0
M  V30 5 C -0.455364 -0.22623 -0.135407 0
M  V30 6 C -0.922541 0.741394 0.757627 0
M  V30 7 N 0.122815 1.44158 1.22782 0
M  V30 8 C 1.24988 0.934846 0.647867 0
M  V30 9 C 0.905901 -0.100648 -0.200428 0
M  V30 10 C 1.86125 -0.791447 -0.917128 0
M  V30 11 C 1.55669 -1.89675 -1.83059 0
M  V30 12 C 3.17651 -0.392693 -0.740985 0
M  V30 13 N 4.18727 -1.08547 -1.46645 0
M  V30 14 C 3.55409 0.634712 0.0960671 0
M  V30 15 C 2.57068 1.30275 0.796729 0
M  V30 16 C 2.88585 2.42193 1.72081 0
M  V30 17 C -2.26028 0.867631 1.03659 0
M  V30 18 N -2.69019 1.86297 1.94873 0
M  V30 19 C -3.14962 -0.00475893 0.398211 0
M  V30 20 H -5.59763 -2.21721 -1.56426 0
M  V30 21 H -5.27111 -2.00327 0.214728 0
M  V30 22 H -5.34618 -0.599795 -0.881008 0
M  V30 23 H -1.06905 -1.83972 -1.44732 0
M  V30 24 H 0.083645 2.22682 1.90927 0
M  V30 25 H 2.49775 -2.28551 -2.27479 0
M  V30 26 H 0.940978 -1.59398 -2.71355 0
M  V30 27 H 1.11579 -2.79414 -1.30701 0
M  V30 28 H 4.35555 -0.955671 -2.48684 0
M  V30 29 H 4.78145 -1.7534 -0.936323 0
M  V30 30 H 4.5698 0.943608 0.232917 0
M  V30 31 H 2.43266 3.36925 1.35273 0
M  V30 32 H 2.49619 2.15534 2.72856 0
M  V30 33 H 3.98491 2.5545 1.77406 0
M  V30 34 H -2.58293 2.85971 1.67174 0
M  V30 35 H -3.10178 1.60775 2.86995 0
M  V30 36 H -4.19669 0.124806 0.643067 0
M  V30 END ATOM
M  V30 BEGIN BOND
M  V30 1 1 1 2
M  V30 2 1 2 3
M  V30 3 2 3 4
M  V30 4 1 4 5
M  V30 5 2 5 6
M  V30 6 1 6 7
M  V30 7 1 7 8
M  V30 8 2 8 9
M  V30 9 1 9 10
M  V30 10 1 10 11
M  V30 11 2 10 12
M  V30 12 1 12 13
M  V30 13 1 12 14
M  V30 14 2 14 15
M  V30 15 1 15 16
M  V30 16 1 6 17
M  V30 17 1 17 18
M  V30 18 2 17 19
M  V30 19 1 19 3
M  V30 20 1 9 5
M  V30 21 1 15 8
M  V30 22 1 1 20
M  V30 23 1 1 21
M  V30 24 1 1 22
M  V30 25 1 4 23
M  V30 26 1 7 24
M  V30 27 1 11 25
M  V30 28 1 11 26
M  V30 29 1 11 27
M  V30 30 1 13 28
M  V30 31 1 13 29
M  V30 32 1 14 30
M  V30 33 1 16 31
M  V30 34 1 16 32
M  V30 35 1 16 33
M  V30 36 1 18 34
M  V30 37 1 18 35
M  V30 38 1 19 36
M  V30 END BOND
M  V30 END CTAB
M  END
