
     RDKit          3D

  0  0  0  0  0  0  0  0  0  0999 V3000
M  V30 BEGIN CTAB
M  V30 COUNTS 16 16 0 0 0
M  V30 BEGIN ATOM
M  V30 1 N 2.61799 -0.446107 -0.0280329 0
M  V30 2 C 1.28324 0.00526046 -0.02266 0
M  V30 3 C 1.02106 1.35009 -0.0519703 0
M  V30 4 C -0.302559 1.7408 -0.0452563 0
M  V30 5 C -1.34882 0.819629 -0.0102103 0
M  V30 6 Cl -3.02505 1.33943 -0.0023317 0
M  V30 7 C -1.07506 -0.532521 0.0191385 0
M  V30 8 N -2.14937 -1.44504 0.0543212 0
M  V30 9 C 0.253303 -0.937268 0.0127022 0
M  V30 10 H 3.26829 -0.0966379 0.713866 0
M  V30 11 H 2.95136 -1.10883 -0.748534 0
M  V30 12 H 1.77594 2.12061 -0.0798148 0
M  V30 13 H -0.557776 2.78184 -0.0673298 0
M  V30 14 H -2.58208 -1.89922 -0.77403 0
M  V30 15 H -2.56818 -1.70554 0.994321 0
M  V30 16 H 0.437701 -1.98647 0.0358214 0
M  V30 END ATOM
M  V30 BEGIN BOND
M  V30 1 1 1 2
M  V30 2 2 2 3
M  V30 3 1 3 4
M  V30 4 2 4 5
M  V30 5 1 5 6
M  V30 6 1 5 7
M  V30 7 1 7 8
M  V30 8 2 7 9
M  V30 9 1 9 2
M  V30 10 1 1 10
M  V30 11 1 1 11
M  V30 12 1 3 12
M  V30 13 1 4 13
M  V30 14 1 8 14
M  V30 15 1 8 15
M  V30 16 1 9 16
M  V30 END BOND
M  V30 END CTAB
M  END
