
     RDKit          3D

  0  0  0  0  0  0  0  0  0  0999 V3000
M  V30 BEGIN CTAB
M  V30 COUNTS 26 27 0 0 0
M  V30 BEGIN ATOM
M  V30 1 N 3.59145 -2.08452 0.423484 0
M  V30 2 C 2.70205 -0.977548 0.324119 0
M  V30 3 N 3.18775 0.289919 0.341905 0
M  V30 4 C 2.38521 1.3624 0.249707 0
M  V30 5 N 2.92863 2.66811 0.271925 0
M  V30 6 N 1.07604 1.10849 0.139014 0
M  V30 7 C 0.497247 -0.073792 0.111313 0
M  V30 8 N 1.37683 -1.12369 0.209943 0
M  V30 9 C -0.886072 -0.424691 -0.0162567 0
M  V30 10 C -1.28112 -1.77165 0.132696 0
M  V30 11 C -2.5731 -2.19011 0.0341415 0
M  V30 12 C -3.5407 -1.26768 -0.221145 0
M  V30 13 C -3.19617 0.0366648 -0.370796 0
M  V30 14 C -1.86375 0.485922 -0.272624 0
M  V30 15 C -1.63351 1.89314 -0.488497 0
M  V30 16 F -0.83621 2.08849 -1.60644 0
M  V30 17 F -2.85882 2.48348 -0.895805 0
M  V30 18 F -1.27685 2.64938 0.601511 0
M  V30 19 H 4.27024 -2.2192 -0.346225 0
M  V30 20 H 3.57798 -2.7384 1.22046 0
M  V30 21 H 2.47255 3.42621 0.798975 0
M  V30 22 H 3.79543 2.86826 -0.246749 0
M  V30 23 H -0.477756 -2.46381 0.335393 0
M  V30 24 H -2.85014 -3.22993 0.152524 0
M  V30 25 H -4.60011 -1.55161 -0.310032 0
M  V30 26 H -3.9871 0.756168 -0.572536 0
M  V30 END ATOM
M  V30 BEGIN BOND
M  V30 1 1 1 2
M  V30 2 2 2 3
M  V30 3 1 3 4
M  V30 4 1 4 5
M  V30 5 2 4 6
M  V30 6 1 6 7
M  V30 7 2 7 8
M  V30 8 1 7 9
M  V30 9 2 9 10
M  V30 10 1 10 11
M  V30 11 2 11 12
M  V30 12 1 12 13
M  V30 13 2 13 14
M  V30 14 1 14 15
M  V30 15 1 15 16
M  V30 16 1 15 17
M  V30 17 1 15 18
M  V30 18 1 8 2
M  V30 19 1 14 9
M  V30 20 1 1 19
M  V30 21 1 1 20
M  V30 22 1 5 21
M  V30 23 1 5 22
M  V30 24 1 10 23
M  V30 25 1 11 24
M  V30 26 1 12 25
M  V30 27 1 13 26
M  V30 END BOND
M  V30 END CTAB
M  END
