
     RDKit          3D

  0  0  0  0  0  0  0  0  0  0999 V3000
M  V30 BEGIN CTAB
M  V30 COUNTS 29 30 0 0 0
M  V30 BEGIN ATOM
M  V30 1 N -1.98341 -1.06343 -1.62502 0
M  V30 2 C -2.14487 0.245595 -1.08352 0
M  V30 3 C -1.39026 0.47059 0.223549 0
M  V30 4 N 0.017207 0.297327 0.113167 0
M  V30 5 C 0.69464 -0.918533 -0.170661 0
M  V30 6 O 0.300551 -2.09173 0.0195261 0
M  V30 7 C 2.0146 -0.57648 -0.759217 0
M  V30 8 C 2.20895 0.904676 -0.521212 0
M  V30 9 C 1.00787 1.34164 0.268769 0
M  V30 10 O 0.850967 2.39049 0.941901 0
M  V30 11 C 3.422 0.594112 0.292538 0
M  V30 12 C 3.14138 -0.886652 0.191991 0
M  V30 13 C -2.0081 -0.341107 1.34043 0
M  V30 14 N -3.39312 0.0258054 1.55665 0
M  V30 15 H -1.66868 -1.05574 -2.63803 0
M  V30 16 H -2.85514 -1.63384 -1.50642 0
M  V30 17 H -1.67643 0.976776 -1.80621 0
M  V30 18 H -3.18985 0.564927 -0.987297 0
M  V30 19 H -1.63023 1.5514 0.466862 0
M  V30 20 H 2.17566 -0.915708 -1.79164 0
M  V30 21 H 2.35398 1.51344 -1.42619 0
M  V30 22 H 3.44673 1.01645 1.3062 0
M  V30 23 H 4.34048 0.891506 -0.266087 0
M  V30 24 H 2.78779 -1.25801 1.17454 0
M  V30 25 H 3.97094 -1.48192 -0.254439 0
M  V30 26 H -1.48071 -0.204505 2.28797 0
M  V30 27 H -2.0071 -1.42504 1.09061 0
M  V30 28 H -3.69526 0.841108 1.00612 0
M  V30 29 H -3.61057 0.226861 2.55511 0
M  V30 END ATOM
M  V30 BEGIN BOND
M  V30 1 1 1 2
M  V30 2 1 2 3
M  V30 3 1 3 4
M  V30 4 1 4 5
M  V30 5 2 5 6
M  V30 6 1 5 7
M  V30 7 1 7 8
M  V30 8 1 8 9
M  V30 9 2 9 10
M  V30 10 1 8 11
M  V30 11 1 11 12
M  V30 12 1 3 13
M  V30 13 1 13 14
M  V30 14 1 9 4
M  V30 15 1 12 7
M  V30 16 1 1 15
M  V30 17 1 1 16
M  V30 18 1 2 17
M  V30 19 1 2 18
M  V30 20 1 3 19
M  V30 21 1 7 20
M  V30 22 1 8 21
M  V30 23 1 11 22
M  V30 24 1 11 23
M  V30 25 1 12 24
M  V30 26 1 12 25
M  V30 27 1 13 26
M  V30 28 1 13 27
M  V30 29 1 14 28
M  V30 30 1 14 29
M  V30 END BOND
M  V30 END CTAB
M  END
