
     RDKit          3D

  0  0  0  0  0  0  0  0  0  0999 V3000
M  V30 BEGIN CTAB
M  V30 COUNTS 96 98 0 0 0
M  V30 BEGIN ATOM
M  V30 1 C 10.034 -1.34419 -2.16583 0
M  V30 2 C 9.3342 -0.277857 -1.37878 0
M  V30 3 O 9.95609 0.768982 -1.09455 0
M  V30 4 N 8.01896 -0.47324 -0.984856 0
M  V30 5 C 7.1481 0.359919 -0.245259 0
M  V30 6 C 7.55477 1.53485 0.366038 0
M  V30 7 C 6.64535 2.24722 1.13179 0
M  V30 8 C 5.33955 1.85971 1.33009 0
M  V30 9 C 4.91611 0.685075 0.725503 0
M  V30 10 N 3.64409 0.133296 0.909636 0
M  V30 11 C 2.49985 0.680425 1.48352 0
M  V30 12 O 2.43746 1.82839 1.91958 0
M  V30 13 C 1.27755 -0.147234 1.59409 0
M  V30 14 C 1.37371 -1.2872 2.38946 0
M  V30 15 C 0.273048 -2.08488 2.4932 0
M  V30 16 C -0.910504 -1.77671 1.82847 0
M  V30 17 C -1.02404 -0.657855 1.0402 0
M  V30 18 C 0.124255 0.147774 0.95101 0
M  V30 19 C -2.25643 -0.288084 0.318768 0
M  V30 20 O -2.19437 0.769097 -0.335371 0
M  V30 21 N -3.37929 -1.09533 0.397725 0
M  V30 22 C -4.66126 -0.956204 -0.182356 0
M  V30 23 C -5.03808 0.120601 -0.986465 0
M  V30 24 C -6.30932 0.213202 -1.49581 0
M  V30 25 C -7.20431 -0.803329 -1.18201 0
M  V30 26 C -6.88091 -1.88724 -0.393069 0
M  V30 27 N -7.76119 -2.94043 -0.0767098 0
M  V30 28 C -9.11842 -2.99242 -0.324018 0
M  V30 29 C -9.89612 -4.22245 0.113866 0
M  V30 30 O -9.8262 -2.08648 -0.900235 0
M  V30 31 C -5.57245 -1.94663 0.108713 0
M  V30 32 S -5.13128 -3.35274 1.12814 0
M  V30 33 C -5.36721 -3.05918 2.88063 0
M  V30 34 C -6.79623 -2.86758 3.29308 0
M  V30 35 N -6.89517 -2.64519 4.72561 0
M  V30 36 C -6.72077 1.35899 -2.35659 0
M  V30 37 C -5.5289 1.93145 -3.08761 0
M  V30 38 C -7.38081 2.4341 -1.5312 0
M  V30 39 C -7.68742 0.854131 -3.40827 0
M  V30 40 C 5.84236 -0.0208975 -0.045162 0
M  V30 41 S 5.2271 -1.47719 -0.913511 0
M  V30 42 C 4.36268 -1.0319 -2.42571 0
M  V30 43 C 5.13918 -0.304099 -3.45635 0
M  V30 44 N 5.60609 0.991276 -3.07519 0
M  V30 45 C 7.09778 3.49144 1.80456 0
M  V30 46 C 7.88499 3.07342 3.03044 0
M  V30 47 C 5.96829 4.37215 2.25498 0
M  V30 48 C 7.99377 4.22801 0.810113 0
M  V30 49 H 11.0215 -1.58443 -1.72828 0
M  V30 50 H 9.3973 -2.26503 -2.19776 0
M  V30 51 H 10.152 -0.986433 -3.21534 0
M  V30 52 H 7.57036 -1.41022 -1.27688 0
M  V30 53 H 8.55504 1.91765 0.274925 0
M  V30 54 H 4.66544 2.44783 1.94195 0
M  V30 55 H 3.50849 -0.886826 0.565238 0
M  V30 56 H 2.31579 -1.48891 2.89035 0
M  V30 57 H 0.300209 -2.97888 3.09998 0
M  V30 58 H -1.76665 -2.45089 1.94312 0
M  V30 59 H 0.0445358 1.05377 0.316215 0
M  V30 60 H -3.26212 -1.97651 0.992905 0
M  V30 61 H -4.32588 0.894998 -1.21631 0
M  V30 62 H -8.17759 -0.686503 -1.60596 0
M  V30 63 H -7.33192 -3.8017 0.388554 0
M  V30 64 H -10.953 -3.96209 0.329972 0
M  V30 65 H -9.89911 -4.98699 -0.673349 0
M  V30 66 H -9.36355 -4.62887 0.998131 0
M  V30 67 H -5.01558 -3.99379 3.40944 0
M  V30 68 H -4.71509 -2.25723 3.27513 0
M  V30 69 H -7.24688 -1.97362 2.79986 0
M  V30 70 H -7.42637 -3.75316 3.07692 0
M  V30 71 H -5.92071 -2.50064 5.0924 0
M  V30 72 H -7.45127 -1.80315 4.95632 0
M  V30 73 H -5.94377 2.61735 -3.86297 0
M  V30 74 H -5.0032 1.07191 -3.56016 0
M  V30 75 H -4.8751 2.45974 -2.38176 0
M  V30 76 H -7.8284 1.99155 -0.626334 0
M  V30 77 H -8.19839 2.86137 -2.18068 0
M  V30 78 H -6.62922 3.22765 -1.31265 0
M  V30 79 H -7.27439 -0.0928147 -3.79208 0
M  V30 80 H -8.72057 0.780012 -3.06722 0
M  V30 81 H -7.65594 1.60171 -4.23104 0
M  V30 82 H 3.44498 -0.433676 -2.16634 0
M  V30 83 H 3.91455 -1.97114 -2.87946 0
M  V30 84 H 4.47836 -0.156571 -4.36045 0
M  V30 85 H 6.01083 -0.879368 -3.84861 0
M  V30 86 H 4.88109 1.72117 -3.00798 0
M  V30 87 H 6.45614 1.25493 -3.61384 0
M  V30 88 H 7.62056 2.02915 3.3525 0
M  V30 89 H 7.67275 3.7593 3.87365 0
M  V30 90 H 8.97377 3.09652 2.84815 0
M  V30 91 H 5.30111 4.66873 1.42468 0
M  V30 92 H 5.45243 3.93186 3.12163 0
M  V30 93 H 6.46584 5.31649 2.63045 0
M  V30 94 H 9.01597 3.84219 0.972843 0
M  V30 95 H 7.72343 3.99307 -0.242464 0
M  V30 96 H 7.8835 5.31353 0.911738 0
M  V30 END ATOM
M  V30 BEGIN BOND
M  V30 1 1 1 2
M  V30 2 2 2 3
M  V30 3 1 2 4
M  V30 4 1 4 5
M  V30 5 2 5 6
M  V30 6 1 6 7
M  V30 7 2 7 8
M  V30 8 1 8 9
M  V30 9 1 9 10
M  V30 10 1 10 11
M  V30 11 2 11 12
M  V30 12 1 11 13
M  V30 13 2 13 14
M  V30 14 1 14 15
M  V30 15 2 15 16
M  V30 16 1 16 17
M  V30 17 2 17 18
M  V30 18 1 17 19
M  V30 19 2 19 20
M  V30 20 1 19 21
M  V30 21 1 21 22
M  V30 22 2 22 23
M  V30 23 1 23 24
M  V30 24 2 24 25
M  V30 25 1 25 26
M  V30 26 1 26 27
M  V30 27 1 27 28
M  V30 28 1 28 29
M  V30 29 2 28 30
M  V30 30 2 26 31
M  V30 31 1 31 32
M  V30 32 1 32 33
M  V30 33 1 33 34
M  V30 34 1 34 35
M  V30 35 1 24 36
M  V30 36 1 36 37
M  V30 37 1 36 38
M  V30 38 1 36 39
M  V30 39 2 9 40
M  V30 40 1 40 41
M  V30 41 1 41 42
M  V30 42 1 42 43
M  V30 43 1 43 44
M  V30 44 1 7 45
M  V30 45 1 45 46
M  V30 46 1 45 47
M  V30 47 1 45 48
M  V30 48 1 40 5
M  V30 49 1 18 13
M  V30 50 1 31 22
M  V30 51 1 1 49
M  V30 52 1 1 50
M  V30 53 1 1 51
M  V30 54 1 4 52
M  V30 55 1 6 53
M  V30 56 1 8 54
M  V30 57 1 10 55
M  V30 58 1 14 56
M  V30 59 1 15 57
M  V30 60 1 16 58
M  V30 61 1 18 59
M  V30 62 1 21 60
M  V30 63 1 23 61
M  V30 64 1 25 62
M  V30 65 1 27 63
M  V30 66 1 29 64
M  V30 67 1 29 65
M  V30 68 1 29 66
M  V30 69 1 33 67
M  V30 70 1 33 68
M  V30 71 1 34 69
M  V30 72 1 34 70
M  V30 73 1 35 71
M  V30 74 1 35 72
M  V30 75 1 37 73
M  V30 76 1 37 74
M  V30 77 1 37 75
M  V30 78 1 38 76
M  V30 79 1 38 77
M  V30 80 1 38 78
M  V30 81 1 39 79
M  V30 82 1 39 80
M  V30 83 1 39 81
M  V30 84 1 42 82
M  V30 85 1 42 83
M  V30 86 1 43 84
M  V30 87 1 43 85
M  V30 88 1 44 86
M  V30 89 1 44 87
M  V30 90 1 46 88
M  V30 91 1 46 89
M  V30 92 1 46 90
M  V30 93 1 47 91
M  V30 94 1 47 92
M  V30 95 1 47 93
M  V30 96 1 48 94
M  V30 97 1 48 95
M  V30 98 1 48 96
M  V30 END BOND
M  V30 END CTAB
M  END
