
     RDKit          3D

  0  0  0  0  0  0  0  0  0  0999 V3000
M  V30 BEGIN CTAB
M  V30 COUNTS 18 19 0 0 0
M  V30 BEGIN ATOM
M  V30 1 N -1.10068 1.80392 -0.910484 0
M  V30 2 C -0.910421 0.565654 -0.221893 0
M  V30 3 C -2.02478 -0.0683576 0.260627 0
M  V30 4 C -1.84068 -1.2612 0.923858 0
M  V30 5 N -0.604019 -1.72437 1.05642 0
M  V30 6 C 0.499545 -1.1146 0.588939 0
M  V30 7 N 0.331834 0.0512741 -0.0606072 0
M  V30 8 N 1.52974 0.453026 -0.419088 0
M  V30 9 C 2.47448 -0.425095 -0.0176253 0
M  V30 10 N 1.82877 -1.41253 0.616984 0
M  V30 11 N 3.8892 -0.354221 -0.209916 0
M  V30 12 C -3.33143 0.495103 0.0780814 0
M  V30 13 N -4.39758 0.959772 -0.0637607 0
M  V30 14 H -1.82805 1.79396 -1.66621 0
M  V30 15 H -0.561313 2.66506 -0.687883 0
M  V30 16 H -2.72266 -1.77762 1.31411 0
M  V30 17 H 4.23294 -0.0407971 -1.14571 0
M  V30 18 H 4.5351 -0.608982 0.564162 0
M  V30 END ATOM
M  V30 BEGIN BOND
M  V30 1 1 1 2
M  V30 2 2 2 3
M  V30 3 1 3 4
M  V30 4 2 4 5
M  V30 5 1 5 6
M  V30 6 1 6 7
M  V30 7 1 7 8
M  V30 8 2 8 9
M  V30 9 1 9 10
M  V30 10 1 9 11
M  V30 11 1 3 12
M  V30 12 3 12 13
M  V30 13 1 7 2
M  V30 14 2 10 6
M  V30 15 1 1 14
M  V30 16 1 1 15
M  V30 17 1 4 16
M  V30 18 1 11 17
M  V30 19 1 11 18
M  V30 END BOND
M  V30 END CTAB
M  END
