
     RDKit          3D

  0  0  0  0  0  0  0  0  0  0999 V3000
M  V30 BEGIN CTAB
M  V30 COUNTS 38 41 0 0 0
M  V30 BEGIN ATOM
M  V30 1 N 5.54418 0.858725 -0.806068 0
M  V30 2 C 4.16712 0.586944 -0.631753 0
M  V30 3 N 3.45476 1.33667 0.206618 0
M  V30 4 C 2.1245 1.14857 0.437385 0
M  V30 5 C 1.43334 0.1262 -0.220717 0
M  V30 6 C 2.19993 -0.614295 -1.06638 0
M  V30 7 N 1.63949 -1.66523 -1.77512 0
M  V30 8 N 3.52391 -0.395214 -1.26902 0
M  V30 9 C 0.0212248 -0.0317363 0.0858904 0
M  V30 10 C -0.387314 1.04791 1.07363 0
M  V30 11 C -1.87218 1.04343 1.37435 0
M  V30 12 C -2.58061 1.34386 0.0716085 0
M  V30 13 C -2.27122 0.27483 -0.913108 0
M  V30 14 C -2.68098 -1.08212 -0.3288 0
M  V30 15 C -1.88323 -1.32344 0.9028 0
M  V30 16 C -2.27575 -0.280449 1.92758 0
M  V30 17 C -0.38278 -1.33678 0.684404 0
M  V30 18 C -0.781058 0.128206 -1.18912 0
M  V30 19 H 5.87345 1.83427 -0.854151 0
M  V30 20 H 6.21568 0.0819028 -0.884667 0
M  V30 21 H 1.70606 1.82351 1.14537 0
M  V30 22 H 1.27179 -1.52162 -2.73467 0
M  V30 23 H 1.58958 -2.61904 -1.36356 0
M  V30 24 H 0.151645 0.870699 2.00967 0
M  V30 25 H -0.0933566 2.06091 0.697682 0
M  V30 26 H -2.03356 1.83433 2.10506 0
M  V30 27 H -2.21254 2.32445 -0.283625 0
M  V30 28 H -3.66209 1.3496 0.271322 0
M  V30 29 H -2.75102 0.43836 -1.8936 0
M  V30 30 H -2.59195 -1.87618 -1.0946 0
M  V30 31 H -3.73149 -0.99318 -0.0581037 0
M  V30 32 H -2.20358 -2.30921 1.32622 0
M  V30 33 H -3.39716 -0.297547 1.96498 0
M  V30 34 H -1.84347 -0.475719 2.90632 0
M  V30 35 H -0.206678 -2.22517 0.0560888 0
M  V30 36 H 0.0329504 -1.47386 1.72413 0
M  V30 37 H -0.387459 0.87542 -1.87538 0
M  V30 38 H -0.720129 -0.86802 -1.72867 0
M  V30 END ATOM
M  V30 BEGIN BOND
M  V30 1 1 1 2
M  V30 2 2 2 3
M  V30 3 1 3 4
M  V30 4 2 4 5
M  V30 5 1 5 6
M  V30 6 1 6 7
M  V30 7 2 6 8
M  V30 8 1 5 9
M  V30 9 1 9 10
M  V30 10 1 10 11
M  V30 11 1 11 12
M  V30 12 1 12 13
M  V30 13 1 13 14
M  V30 14 1 14 15
M  V30 15 1 15 16
M  V30 16 1 15 17
M  V30 17 1 13 18
M  V30 18 1 8 2
M  V30 19 1 17 9
M  V30 20 1 18 9
M  V30 21 1 16 11
M  V30 22 1 1 19
M  V30 23 1 1 20
M  V30 24 1 4 21
M  V30 25 1 7 22
M  V30 26 1 7 23
M  V30 27 1 10 24
M  V30 28 1 10 25
M  V30 29 1 11 26
M  V30 30 1 12 27
M  V30 31 1 12 28
M  V30 32 1 13 29
M  V30 33 1 14 30
M  V30 34 1 14 31
M  V30 35 1 15 32
M  V30 36 1 16 33
M  V30 37 1 16 34
M  V30 38 1 17 35
M  V30 39 1 17 36
M  V30 40 1 18 37
M  V30 41 1 18 38
M  V30 END BOND
M  V30 END CTAB
M  END
