
     RDKit          3D

  0  0  0  0  0  0  0  0  0  0999 V3000
M  V30 BEGIN CTAB
M  V30 COUNTS 55 57 0 0 0
M  V30 BEGIN ATOM
M  V30 1 C 0.812993 -1.93711 -0.391588 0
M  V30 2 C 0.248103 -2.20883 0.760583 0
M  V30 3 C 0.367817 -1.42283 2.00773 0
M  V30 4 N 1.18894 -0.260936 1.91224 0
M  V30 5 C 0.759339 0.959032 1.56319 0
M  V30 6 S -0.869132 1.49828 1.13126 0
M  V30 7 C -1.20352 1.38438 -0.623401 0
M  V30 8 C -2.58573 1.9029 -0.838599 0
M  V30 9 O -2.71853 3.12174 -1.08415 0
M  V30 10 N -3.6667 0.994073 -0.754128 0
M  V30 11 C -5.02149 1.43277 -0.952825 0
M  V30 12 C -5.69404 0.646109 -2.07334 0
M  V30 13 C -6.61097 -0.403471 -1.53669 0
M  V30 14 C -6.09264 -1.10337 -0.311412 0
M  V30 15 C -5.75668 -0.170004 0.803209 0
M  V30 16 C -5.8764 1.2497 0.280609 0
M  V30 17 N 1.83208 1.76978 1.61234 0
M  V30 18 N 2.87785 1.07429 1.97799 0
M  V30 19 C 2.52251 -0.227342 2.18248 0
M  V30 20 C 3.43851 -1.30624 2.61962 0
M  V30 21 S 4.29373 -2.15077 1.29625 0
M  V30 22 C 5.46651 -1.09085 0.469336 0
M  V30 23 N 6.21384 -1.52426 -0.563988 0
M  V30 24 C 7.11043 -0.760249 -1.20845 0
M  V30 25 N 7.89283 -1.21003 -2.29111 0
M  V30 26 C 7.2902 0.548582 -0.801884 0
M  V30 27 C 6.52758 1.01077 0.261889 0
M  V30 28 N 5.65015 0.183072 0.855355 0
M  V30 29 N 6.66075 2.34602 0.733381 0
M  V30 30 H 1.44672 -1.07174 -0.537055 0
M  V30 31 H 0.650398 -2.58947 -1.23598 0
M  V30 32 H -0.384091 -3.1109 0.826647 0
M  V30 33 H 0.649237 -2.08648 2.85677 0
M  V30 34 H -0.686771 -1.10168 2.26199 0
M  V30 35 H -1.20777 0.337612 -0.95832 0
M  V30 36 H -0.462458 1.94255 -1.23575 0
M  V30 37 H -3.53125 -0.0199526 -0.546799 0
M  V30 38 H -5.01126 2.51539 -1.17021 0
M  V30 39 H -6.29466 1.38034 -2.64672 0
M  V30 40 H -4.90253 0.173681 -2.71278 0
M  V30 41 H -7.63269 -0.0337426 -1.31022 0
M  V30 42 H -6.74972 -1.1924 -2.31879 0
M  V30 43 H -6.90195 -1.78496 0.0366257 0
M  V30 44 H -5.20138 -1.74103 -0.515701 0
M  V30 45 H -6.42399 -0.301587 1.66462 0
M  V30 46 H -4.70073 -0.28991 1.15055 0
M  V30 47 H -5.67453 1.99874 1.06031 0
M  V30 48 H -6.93541 1.38755 -0.0247663 0
M  V30 49 H 2.91046 -2.02619 3.30208 0
M  V30 50 H 4.20784 -0.833068 3.28157 0
M  V30 51 H 8.90165 -1.3717 -2.16485 0
M  V30 52 H 7.45417 -1.37663 -3.20825 0
M  V30 53 H 8.00263 1.21442 -1.28687 0
M  V30 54 H 6.69566 3.15905 0.108718 0
M  V30 55 H 6.72409 2.47689 1.77093 0
M  V30 END ATOM
M  V30 BEGIN BOND
M  V30 1 2 1 2 CFG=2
M  V30 2 1 2 3
M  V30 3 1 3 4
M  V30 4 1 4 5
M  V30 5 1 5 6
M  V30 6 1 6 7
M  V30 7 1 7 8
M  V30 8 2 8 9
M  V30 9 1 8 10
M  V30 10 1 10 11
M  V30 11 1 11 12
M  V30 12 1 12 13
M  V30 13 1 13 14
M  V30 14 1 14 15
M  V30 15 1 15 16
M  V30 16 2 5 17
M  V30 17 1 17 18
M  V30 18 2 18 19
M  V30 19 1 19 20
M  V30 20 1 20 21
M  V30 21 1 21 22
M  V30 22 2 22 23
M  V30 23 1 23 24
M  V30 24 1 24 25
M  V30 25 2 24 26
M  V30 26 1 26 27
M  V30 27 2 27 28
M  V30 28 1 27 29
M  V30 29 1 19 4
M  V30 30 1 28 22
M  V30 31 1 16 11
M  V30 32 1 1 30
M  V30 33 1 1 31
M  V30 34 1 2 32
M  V30 35 1 3 33
M  V30 36 1 3 34
M  V30 37 1 7 35
M  V30 38 1 7 36
M  V30 39 1 10 37
M  V30 40 1 11 38
M  V30 41 1 12 39
M  V30 42 1 12 40
M  V30 43 1 13 41
M  V30 44 1 13 42
M  V30 45 1 14 43
M  V30 46 1 14 44
M  V30 47 1 15 45
M  V30 48 1 15 46
M  V30 49 1 16 47
M  V30 50 1 16 48
M  V30 51 1 20 49
M  V30 52 1 20 50
M  V30 53 1 25 51
M  V30 54 1 25 52
M  V30 55 1 26 53
M  V30 56 1 29 54
M  V30 57 1 29 55
M  V30 END BOND
M  V30 END CTAB
M  END
