
     RDKit          3D

  0  0  0  0  0  0  0  0  0  0999 V3000
M  V30 BEGIN CTAB
M  V30 COUNTS 123 124 0 0 0
M  V30 BEGIN ATOM
M  V30 1 C -7.11048 2.88405 1.22483 0 CFG=2
M  V30 2 C -8.41711 2.65781 1.84068 0
M  V30 3 C -9.59443 2.66101 0.930577 0
M  V30 4 C -9.66466 3.99766 0.208516 0
M  V30 5 C -9.80801 1.59904 -0.078962 0
M  V30 6 N -6.78362 1.78574 0.349632 0
M  V30 7 C -6.09511 0.618922 0.953246 0
M  V30 8 O -5.79013 0.575732 2.07055 0
M  V30 9 C -5.90785 -0.408585 -0.178272 0 CFG=1
M  V30 10 N -4.65295 -0.146571 -0.728367 0
M  V30 11 C -3.40198 0.152564 -0.218943 0
M  V30 12 O -3.04102 0.195948 0.921907 0
M  V30 13 C -2.30283 0.495654 -1.32901 0 CFG=2
M  V30 14 C -1.82532 -0.728876 -2.05691 0
M  V30 15 C -2.59966 -1.84085 -2.50507 0
M  V30 16 C -2.52731 -2.94553 -1.5796 0
M  V30 17 C -3.10999 -4.15234 -1.81266 0
M  V30 18 C -3.79784 -4.32127 -2.96868 0
M  V30 19 O -4.38836 -5.62175 -3.16506 0
M  V30 20 C -3.87913 -3.28364 -3.85212 0
M  V30 21 C -3.31238 -2.07132 -3.67793 0
M  V30 22 N -1.19089 0.69617 -0.457539 0
M  V30 23 C -0.150588 0.890675 0.358032 0
M  V30 24 O 0.372577 1.9118 0.786311 0
M  V30 25 C 0.373581 -0.474749 0.715125 0 CFG=2
M  V30 26 C 0.316299 -0.609931 2.25393 0
M  V30 27 C 1.08353 -1.90964 2.39908 0
M  V30 28 C 1.60912 -2.21334 1.02108 0
M  V30 29 N 1.70343 -0.878708 0.459005 0
M  V30 30 C 2.7168 -0.155605 -0.22594 0
M  V30 31 O 2.20801 0.905045 -0.855231 0
M  V30 32 C 4.08194 -0.291936 -0.336108 0 CFG=2
M  V30 33 C 5.03457 -1.27968 0.141399 0
M  V30 34 C 5.03157 -2.68439 -0.295195 0
M  V30 35 C 6.03151 -3.4351 0.626898 0
M  V30 36 N 6.1146 -4.77983 0.123346 0
M  V30 37 C 6.80334 -5.1342 -1.02764 0
M  V30 38 N 8.17196 -4.812 -1.23191 0
M  V30 39 N 6.19854 -5.77479 -2.0566 0
M  V30 40 N 4.86735 0.969674 -0.00596417 0
M  V30 41 C 5.73883 1.57095 -0.81929 0
M  V30 42 O 5.94381 1.23038 -2.03047 0
M  V30 43 C 6.64716 2.71565 -0.341516 0 CFG=2
M  V30 44 C 7.91426 1.84146 0.0211067 0
M  V30 45 C 9.05539 2.64867 0.496589 0
M  V30 46 C 9.62361 3.31706 -0.761176 0
M  V30 47 C 10.7005 4.27781 -0.456773 0
M  V30 48 C 10.1447 5.47088 0.343907 0
M  V30 49 N 9.07526 6.07354 -0.445027 0
M  V30 50 N 6.11692 3.14563 0.976199 0
M  V30 51 N 6.4864 2.55873 2.01321 0 CHG=1
M  V30 52 N 6.6562 1.92056 3.01877 0 CHG=-1
M  V30 53 C -6.21494 -1.74994 0.324746 0
M  V30 54 C -5.38769 -2.38047 1.3501 0
M  V30 55 C -7.6357 -1.68171 0.976974 0
M  V30 56 C -6.44834 -2.64803 -0.885714 0
M  V30 57 C -5.92923 2.97839 2.2558 0
M  V30 58 O -6.47681 3.14994 3.52212 0
M  V30 59 O -4.86554 2.91012 1.85153 0
M  V30 60 H -7.03004 3.80275 0.631252 0
M  V30 61 H -8.46046 1.64503 2.37274 0
M  V30 62 H -8.6196 3.36877 2.69256 0
M  V30 63 H -10.495 2.6451 1.60425 0
M  V30 64 H -8.86789 4.01829 -0.604256 0
M  V30 65 H -9.68748 4.83199 0.848118 0
M  V30 66 H -10.6403 3.9373 -0.381835 0
M  V30 67 H -9.73098 2.10328 -1.11864 0
M  V30 68 H -10.8784 1.21774 -0.125618 0
M  V30 69 H -9.06385 0.786313 -0.189169 0
M  V30 70 H -6.90167 1.84067 -0.621868 0
M  V30 71 H -6.70115 -0.117652 -0.894867 0
M  V30 72 H -4.62238 -0.176639 -1.85578 0
M  V30 73 H -2.68031 1.24693 -1.87895 0
M  V30 74 H -1.49349 -0.256732 -3.11312 0
M  V30 75 H -0.764725 -1.05939 -1.76327 0
M  V30 76 H -1.96945 -2.82114 -0.645944 0
M  V30 77 H -3.04374 -4.96974 -1.0442 0
M  V30 78 H -5.36177 -5.63617 -2.73328 0
M  V30 79 H -4.45938 -3.53258 -4.78237 0
M  V30 80 H -3.38682 -1.28357 -4.39102 0
M  V30 81 H -1.50836 2.05409 -0.424971 0
M  V30 82 H -0.323653 -1.2905 0.390731 0
M  V30 83 H -0.740413 -0.717855 2.48848 0
M  V30 84 H 0.810831 0.288039 2.69057 0
M  V30 85 H 0.385301 -2.74419 2.69481 0
M  V30 86 H 1.94717 -1.78358 3.08315 0
M  V30 87 H 0.739801 -2.70484 0.409712 0
M  V30 88 H 2.41802 -2.86227 1.00199 0
M  V30 89 H 4.32061 -0.260759 -1.52201 0
M  V30 90 H 5.26874 -1.1257 1.24441 0
M  V30 91 H 6.09545 -0.884791 -0.270397 0
M  V30 92 H 4.12359 -3.20549 -0.473235 0
M  V30 93 H 5.57893 -2.70812 -1.3061 0
M  V30 94 H 5.71746 -3.31103 1.65693 0
M  V30 95 H 7.05109 -2.95298 0.494426 0
M  V30 96 H 5.59443 -5.50581 0.715969 0
M  V30 97 H 8.44886 -4.3154 -2.08346 0
M  V30 98 H 8.92114 -5.0796 -0.55018 0
M  V30 99 H 5.16502 -5.98025 -1.86838 0
M  V30 100 H 4.5484 1.33317 0.96129 0
M  V30 101 H 6.87232 3.45966 -0.995883 0
M  V30 102 H 8.14013 1.28288 -0.932452 0
M  V30 103 H 7.60162 1.09924 0.768838 0
M  V30 104 H 9.88073 2.10112 0.929522 0
M  V30 105 H 8.74831 3.49023 1.21222 0
M  V30 106 H 10.0604 2.45155 -1.36491 0
M  V30 107 H 8.7954 3.71968 -1.38488 0
M  V30 108 H 11.4093 3.75431 0.244745 0
M  V30 109 H 11.28 4.54989 -1.34304 0
M  V30 110 H 9.79425 5.20505 1.33031 0
M  V30 111 H 10.9905 6.21976 0.357693 0
M  V30 112 H 8.23787 6.26211 0.104339 0
M  V30 113 H 8.97362 5.68362 -1.37401 0
M  V30 114 H -5.47009 -3.52197 1.17508 0
M  V30 115 H -5.70807 -2.28448 2.39289 0
M  V30 116 H -4.26277 -2.26543 1.21217 0
M  V30 117 H -8.32206 -2.26813 0.366204 0
M  V30 118 H -7.9602 -0.64808 1.0633 0
M  V30 119 H -7.60526 -2.14962 1.99165 0
M  V30 120 H -5.63687 -2.26699 -1.59766 0
M  V30 121 H -6.38271 -3.69347 -0.657834 0
M  V30 122 H -7.41836 -2.37451 -1.3201 0
M  V30 123 H -6.23345 3.96845 4.1 0
M  V30 END ATOM
M  V30 BEGIN BOND
M  V30 1 1 1 2
M  V30 2 1 2 3
M  V30 3 1 3 4
M  V30 4 1 3 5
M  V30 5 1 1 6
M  V30 6 1 6 7
M  V30 7 2 7 8
M  V30 8 1 7 9
M  V30 9 1 9 10
M  V30 10 1 10 11
M  V30 11 2 11 12
M  V30 12 1 11 13
M  V30 13 1 13 14
M  V30 14 1 14 15
M  V30 15 2 15 16
M  V30 16 1 16 17
M  V30 17 2 17 18
M  V30 18 1 18 19
M  V30 19 1 18 20
M  V30 20 2 20 21
M  V30 21 1 13 22
M  V30 22 1 22 23
M  V30 23 2 23 24
M  V30 24 1 23 25
M  V30 25 1 25 26
M  V30 26 1 26 27
M  V30 27 1 27 28
M  V30 28 1 28 29
M  V30 29 1 29 30
M  V30 30 2 30 31
M  V30 31 1 30 32
M  V30 32 1 32 33
M  V30 33 1 33 34
M  V30 34 1 34 35
M  V30 35 1 35 36
M  V30 36 1 36 37
M  V30 37 1 37 38
M  V30 38 2 37 39 CFG=2
M  V30 39 1 32 40
M  V30 40 1 40 41
M  V30 41 2 41 42
M  V30 42 1 41 43
M  V30 43 1 43 44
M  V30 44 1 44 45
M  V30 45 1 45 46
M  V30 46 1 46 47
M  V30 47 1 47 48
M  V30 48 1 48 49
M  V30 49 1 43 50
M  V30 50 2 50 51 CFG=2
M  V30 51 2 51 52
M  V30 52 1 9 53
M  V30 53 1 53 54
M  V30 54 1 53 55
M  V30 55 1 53 56
M  V30 56 1 1 57
M  V30 57 1 57 58
M  V30 58 2 57 59
M  V30 59 1 21 15
M  V30 60 1 29 25
M  V30 61 1 1 60 CFG=3
M  V30 62 1 2 61
M  V30 63 1 2 62
M  V30 64 1 3 63
M  V30 65 1 4 64
M  V30 66 1 4 65
M  V30 67 1 4 66
M  V30 68 1 5 67
M  V30 69 1 5 68
M  V30 70 1 5 69
M  V30 71 1 6 70
M  V30 72 1 9 71 CFG=3
M  V30 73 1 10 72
M  V30 74 1 13 73 CFG=3
M  V30 75 1 14 74
M  V30 76 1 14 75
M  V30 77 1 16 76
M  V30 78 1 17 77
M  V30 79 1 19 78
M  V30 80 1 20 79
M  V30 81 1 21 80
M  V30 82 1 22 81
M  V30 83 1 25 82 CFG=3
M  V30 84 1 26 83
M  V30 85 1 26 84
M  V30 86 1 27 85
M  V30 87 1 27 86
M  V30 88 1 28 87
M  V30 89 1 28 88
M  V30 90 1 32 89 CFG=3
M  V30 91 1 33 90
M  V30 92 1 33 91
M  V30 93 1 34 92
M  V30 94 1 34 93
M  V30 95 1 35 94
M  V30 96 1 35 95
M  V30 97 1 36 96
M  V30 98 1 38 97
M  V30 99 1 38 98
M  V30 100 1 39 99
M  V30 101 1 40 100
M  V30 102 1 43 101 CFG=3
M  V30 103 1 44 102
M  V30 104 1 44 103
M  V30 105 1 45 104
M  V30 106 1 45 105
M  V30 107 1 46 106
M  V30 108 1 46 107
M  V30 109 1 47 108
M  V30 110 1 47 109
M  V30 111 1 48 110
M  V30 112 1 48 111
M  V30 113 1 49 112
M  V30 114 1 49 113
M  V30 115 1 54 114
M  V30 116 1 54 115
M  V30 117 1 54 116
M  V30 118 1 55 117
M  V30 119 1 55 118
M  V30 120 1 55 119
M  V30 121 1 56 120
M  V30 122 1 56 121
M  V30 123 1 56 122
M  V30 124 1 58 123
M  V30 END BOND
M  V30 END CTAB
M  END
