
     RDKit          3D

  0  0  0  0  0  0  0  0  0  0999 V3000
M  V30 BEGIN CTAB
M  V30 COUNTS 38 40 0 0 0
M  V30 BEGIN ATOM
M  V30 1 C 6.26521 0.273061 -0.470437 0
M  V30 2 O 5.08076 1.00646 -0.516036 0
M  V30 3 C 3.87603 0.612191 0.0469314 0
M  V30 4 C 2.80049 1.45867 -0.0909594 0
M  V30 5 C 1.55798 1.16594 0.428785 0
M  V30 6 C 0.395701 2.08045 0.297419 0
M  V30 7 O -0.834307 1.45212 0.456286 0
M  V30 8 C -1.26948 0.468672 -0.407033 0
M  V30 9 C -2.51697 -0.145926 -0.186965 0
M  V30 10 C -3.27003 0.263887 0.904595 0
M  V30 11 N -2.72906 1.27153 1.71916 0
M  V30 12 N -4.48057 -0.311967 1.14336 0
M  V30 13 C -4.98524 -1.27602 0.353981 0
M  V30 14 N -6.26652 -1.86858 0.627511 0
M  V30 15 N -4.25264 -1.66871 -0.700567 0
M  V30 16 C -3.03103 -1.12896 -0.99232 0
M  V30 17 C -2.31089 -1.55349 -2.07625 0
M  V30 18 C -1.08551 -0.983109 -2.33385 0
M  V30 19 C -0.57962 0.0150813 -1.504 0
M  V30 20 C 1.4257 -0.0423067 1.11318 0
M  V30 21 C 2.51111 -0.881298 1.24418 0
M  V30 22 C 3.75296 -0.576032 0.717926 0
M  V30 23 H 6.3977 -0.342454 0.430775 0
M  V30 24 H 6.33342 -0.428412 -1.34743 0
M  V30 25 H 7.11044 0.992497 -0.52058 0
M  V30 26 H 2.87305 2.4139 -0.622693 0
M  V30 27 H 0.51096 2.54336 -0.724864 0
M  V30 28 H 0.548674 2.93736 0.990129 0
M  V30 29 H -2.8557 2.29657 1.58657 0
M  V30 30 H -2.14388 0.986683 2.53693 0
M  V30 31 H -6.67066 -1.90695 1.58444 0
M  V30 32 H -6.80642 -2.27054 -0.149829 0
M  V30 33 H -2.7455 -2.33057 -2.69039 0
M  V30 34 H -0.513809 -1.31696 -3.19045 0
M  V30 35 H 0.377251 0.415926 -1.78317 0
M  V30 36 H 0.482968 -0.30687 1.53022 0
M  V30 37 H 2.44245 -1.83587 1.77441 0
M  V30 38 H 4.60496 -1.23511 0.821017 0
M  V30 END ATOM
M  V30 BEGIN BOND
M  V30 1 1 1 2
M  V30 2 1 2 3
M  V30 3 2 3 4
M  V30 4 1 4 5
M  V30 5 1 5 6
M  V30 6 1 6 7
M  V30 7 1 7 8
M  V30 8 1 8 9
M  V30 9 2 9 10
M  V30 10 1 10 11
M  V30 11 1 10 12
M  V30 12 2 12 13
M  V30 13 1 13 14
M  V30 14 1 13 15
M  V30 15 2 15 16
M  V30 16 1 16 17
M  V30 17 2 17 18
M  V30 18 1 18 19
M  V30 19 2 5 20
M  V30 20 1 20 21
M  V30 21 2 21 22
M  V30 22 1 22 3
M  V30 23 2 19 8
M  V30 24 1 16 9
M  V30 25 1 1 23
M  V30 26 1 1 24
M  V30 27 1 1 25
M  V30 28 1 4 26
M  V30 29 1 6 27
M  V30 30 1 6 28
M  V30 31 1 11 29
M  V30 32 1 11 30
M  V30 33 1 14 31
M  V30 34 1 14 32
M  V30 35 1 17 33
M  V30 36 1 18 34
M  V30 37 1 19 35
M  V30 38 1 20 36
M  V30 39 1 21 37
M  V30 40 1 22 38
M  V30 END BOND
M  V30 END CTAB
M  END
