
     RDKit          3D

  0  0  0  0  0  0  0  0  0  0999 V3000
M  V30 BEGIN CTAB
M  V30 COUNTS 35 36 0 0 0
M  V30 BEGIN ATOM
M  V30 1 C 0.459781 2.75577 -1.55243 0
M  V30 2 C -0.385298 2.03306 -0.532979 0
M  V30 3 C -0.027953 0.597836 -0.335596 0
M  V30 4 C 1.26954 0.215676 0.119151 0
M  V30 5 C 1.70455 -1.08983 -0.163938 0
M  V30 6 N 0.901981 -2.0085 -0.865395 0
M  V30 7 N 2.92043 -1.51224 0.231847 0
M  V30 8 C 3.75202 -0.697621 0.908547 0
M  V30 9 S 5.23454 -1.24254 1.38047 0
M  V30 10 N 3.38054 0.54294 1.19641 0
M  V30 11 C 2.16103 0.98309 0.805378 0
M  V30 12 O 1.85173 2.13726 1.08914 0
M  V30 13 C -1.18333 -0.0947148 0.290192 0
M  V30 14 C -2.24943 -0.574901 -0.462648 0
M  V30 15 N -2.26545 -0.403652 -1.88119 0
M  V30 16 N -3.28176 -1.20475 0.12532 0
M  V30 17 C -3.31252 -1.3867 1.44655 0
M  V30 18 S -4.61919 -2.16971 2.08176 0
M  V30 19 N -2.31046 -0.94237 2.21031 0
M  V30 20 C -1.24533 -0.297659 1.64287 0
M  V30 21 O -0.374886 0.0691653 2.45378 0
M  V30 22 H 1.23764 2.05696 -1.92925 0
M  V30 23 H 0.93472 3.67676 -1.18008 0
M  V30 24 H -0.114363 3.0738 -2.4636 0
M  V30 25 H -0.508471 2.60687 0.407101 0
M  V30 26 H -1.41031 2.03733 -0.975465 0
M  V30 27 H -0.063539 0.211585 -1.42872 0
M  V30 28 H 0.88012 -1.95217 -1.90953 0
M  V30 29 H 0.321264 -2.74935 -0.413869 0
M  V30 30 H 3.25589 -2.47937 0.0284687 0
M  V30 31 H 4.0301 1.18148 1.72557 0
M  V30 32 H -2.74772 0.380894 -2.34436 0
M  V30 33 H -1.76745 -1.10536 -2.452 0
M  V30 34 H -4.05651 -1.5451 -0.49165 0
M  V30 35 H -2.37191 -1.10395 3.23983 0
M  V30 END ATOM
M  V30 BEGIN BOND
M  V30 1 1 1 2
M  V30 2 1 2 3
M  V30 3 1 3 4
M  V30 4 2 4 5
M  V30 5 1 5 6
M  V30 6 1 5 7
M  V30 7 1 7 8
M  V30 8 2 8 9
M  V30 9 1 8 10
M  V30 10 1 10 11
M  V30 11 2 11 12
M  V30 12 1 3 13
M  V30 13 2 13 14
M  V30 14 1 14 15
M  V30 15 1 14 16
M  V30 16 1 16 17
M  V30 17 2 17 18
M  V30 18 1 17 19
M  V30 19 1 19 20
M  V30 20 2 20 21
M  V30 21 1 11 4
M  V30 22 1 20 13
M  V30 23 1 1 22
M  V30 24 1 1 23
M  V30 25 1 1 24
M  V30 26 1 2 25
M  V30 27 1 2 26
M  V30 28 1 3 27
M  V30 29 1 6 28
M  V30 30 1 6 29
M  V30 31 1 7 30
M  V30 32 1 10 31
M  V30 33 1 15 32
M  V30 34 1 15 33
M  V30 35 1 16 34
M  V30 36 1 19 35
M  V30 END BOND
M  V30 END CTAB
M  END
