
     RDKit          3D

  0  0  0  0  0  0  0  0  0  0999 V3000
M  V30 BEGIN CTAB
M  V30 COUNTS 38 39 0 0 0
M  V30 BEGIN ATOM
M  V30 1 C 0.436988 -0.458658 -0.916408 0
M  V30 2 C 1.02698 -0.372622 0.472693 0
M  V30 3 C 2.17465 0.620622 0.475216 0
M  V30 4 N 3.21545 0.2155 -0.44525 0
M  V30 5 C 4.41266 1.02314 -0.597287 0
M  V30 6 N 4.27044 2.29366 -0.72788 0
M  V30 7 S 5.89799 2.91479 -0.882485 0
M  V30 8 O 6.19785 3.80684 0.305432 0
M  V30 9 N 6.6894 1.3593 -0.755643 0
M  V30 10 C 5.73843 0.518851 -0.613339 0
M  V30 11 N 6.05562 -0.88816 -0.47751 0
M  V30 12 S -0.251602 0.094506 1.63694 0
M  V30 13 C -1.50017 -1.09947 1.98087 0
M  V30 14 C -2.40415 -1.43205 0.814375 0
M  V30 15 C -2.17022 -2.51783 -0.00142931 0
M  V30 16 S -3.45932 -2.40571 -1.11091 0
M  V30 17 C -4.21407 -1.00873 -0.489458 0
M  V30 18 N -5.40326 -0.319237 -0.954818 0
M  V30 19 C -5.88323 0.83249 -0.303342 0
M  V30 20 N -5.20455 1.3591 0.822558 0
M  V30 21 N -6.94344 1.39886 -0.742747 0
M  V30 22 N -3.44028 -0.700295 0.535156 0
M  V30 23 H 0.479937 -1.51565 -1.25233 0
M  V30 24 H 1.04032 0.174451 -1.62754 0
M  V30 25 H -0.584416 -0.0404097 -0.966749 0
M  V30 26 H 1.45186 -1.37977 0.770654 0
M  V30 27 H 1.83309 1.63819 0.199344 0
M  V30 28 H 2.62362 0.606847 1.50503 0
M  V30 29 H 3.17185 -0.635712 -1.02467 0
M  V30 30 H 6.46007 -1.33452 -1.32393 0
M  V30 31 H 5.88993 -1.40999 0.402613 0
M  V30 32 H -1.05216 -2.04716 2.3533 0
M  V30 33 H -2.14766 -0.740063 2.80758 0
M  V30 34 H -1.33332 -3.23194 0.106863 0
M  V30 35 H -5.89895 -0.693264 -1.78511 0
M  V30 36 H -4.5492 2.16529 0.73569 0
M  V30 37 H -5.33646 0.959606 1.77685 0
M  V30 38 H -7.2907 2.24919 -0.255008 0
M  V30 END ATOM
M  V30 BEGIN BOND
M  V30 1 1 1 2
M  V30 2 1 2 3
M  V30 3 1 3 4
M  V30 4 1 4 5
M  V30 5 2 5 6
M  V30 6 1 6 7
M  V30 7 2 7 8
M  V30 8 1 7 9
M  V30 9 2 9 10
M  V30 10 1 10 11
M  V30 11 1 2 12
M  V30 12 1 12 13
M  V30 13 1 13 14
M  V30 14 2 14 15
M  V30 15 1 15 16
M  V30 16 1 16 17
M  V30 17 1 17 18
M  V30 18 1 18 19
M  V30 19 1 19 20
M  V30 20 2 19 21 CFG=2
M  V30 21 2 17 22
M  V30 22 1 10 5
M  V30 23 1 22 14
M  V30 24 1 1 23
M  V30 25 1 1 24
M  V30 26 1 1 25
M  V30 27 1 2 26
M  V30 28 1 3 27
M  V30 29 1 3 28
M  V30 30 1 4 29
M  V30 31 1 11 30
M  V30 32 1 11 31
M  V30 33 1 13 32
M  V30 34 1 13 33
M  V30 35 1 15 34
M  V30 36 1 18 35
M  V30 37 1 20 36
M  V30 38 1 20 37
M  V30 39 1 21 38
M  V30 END BOND
M  V30 END CTAB
M  END
