
     RDKit          3D

  0  0  0  0  0  0  0  0  0  0999 V3000
M  V30 BEGIN CTAB
M  V30 COUNTS 22 23 0 0 0
M  V30 BEGIN ATOM
M  V30 1 O -1.39764 1.51025 0.679618 0
M  V30 2 C -1.19965 0.328583 -0.0337581 0
M  V30 3 C -1.97358 -0.769784 0.59715 0
M  V30 4 N -3.15867 -0.220107 -0.0981213 0
M  V30 5 C -2.26378 0.231681 -1.13046 0
M  V30 6 C 0.160279 0.118851 -0.526538 0
M  V30 7 N 0.566522 0.00199085 -1.8042 0
M  V30 8 N 1.87223 -0.134964 -1.88457 0
M  V30 9 C 2.36377 -0.101834 -0.592276 0
M  V30 10 N 1.29529 0.0496326 0.203883 0
M  V30 11 N 1.37667 0.115366 1.61408 0
M  V30 12 N 3.71294 -0.185525 -0.201881 0
M  V30 13 H -0.509869 1.88967 0.982881 0
M  V30 14 H -2.08743 -0.651237 1.6976 0
M  V30 15 H -1.74986 -1.78937 0.224173 0
M  V30 16 H -3.81076 -0.971936 -0.456148 0
M  V30 17 H -1.96874 -0.530553 -1.8605 0
M  V30 18 H -2.4471 1.22347 -1.53796 0
M  V30 19 H 1.35373 -0.770886 2.15915 0
M  V30 20 H 1.45729 1.02563 2.09991 0
M  V30 21 H 4.28823 0.671313 -0.30126 0
M  V30 22 H 4.12013 -1.04025 0.169226 0
M  V30 END ATOM
M  V30 BEGIN BOND
M  V30 1 1 1 2
M  V30 2 1 2 3
M  V30 3 1 3 4
M  V30 4 1 4 5
M  V30 5 1 2 6
M  V30 6 2 6 7
M  V30 7 1 7 8
M  V30 8 2 8 9
M  V30 9 1 9 10
M  V30 10 1 10 11
M  V30 11 1 9 12
M  V30 12 1 5 2
M  V30 13 1 10 6
M  V30 14 1 1 13
M  V30 15 1 3 14
M  V30 16 1 3 15
M  V30 17 1 4 16
M  V30 18 1 5 17
M  V30 19 1 5 18
M  V30 20 1 11 19
M  V30 21 1 11 20
M  V30 22 1 12 21
M  V30 23 1 12 22
M  V30 END BOND
M  V30 END CTAB
M  END
