
     RDKit          3D

  0  0  0  0  0  0  0  0  0  0999 V3000
M  V30 BEGIN CTAB
M  V30 COUNTS 39 40 0 0 0
M  V30 BEGIN ATOM
M  V30 1 N -5.42533 -2.84053 0.294362 0
M  V30 2 C -4.50313 -1.79399 0.100154 0
M  V30 3 C -3.56421 -1.4716 1.04259 0
M  V30 4 C -2.66757 -0.451242 0.841521 0
M  V30 5 C -2.72637 0.254638 -0.339271 0
M  V30 6 C -3.66146 -0.0664241 -1.2788 0
M  V30 7 C -4.56143 -1.07631 -1.0982 0
M  V30 8 C -1.77633 1.32931 -0.563843 0
M  V30 9 O -2.28499 2.43868 -0.906703 0
M  V30 10 N -0.399093 1.13067 -0.406526 0
M  V30 11 C 0.585091 2.14927 -0.60437 0
M  V30 12 S 0.00591106 3.61171 -1.02892 0
M  V30 13 N 1.96839 1.85481 -0.428448 0
M  V30 14 C 2.31287 0.498254 -0.101138 0
M  V30 15 C 2.61633 0.193038 1.19293 0
M  V30 16 C 2.94135 -1.09856 1.52299 0
M  V30 17 C 2.95296 -2.05563 0.537522 0
M  V30 18 C 2.65 -1.76818 -0.774839 0
M  V30 19 C 2.32827 -0.457061 -1.06756 0
M  V30 20 N 3.27908 -3.38242 0.85938 0
M  V30 21 C 3.02643 2.75903 -0.560021 0
M  V30 22 O 4.22666 2.38182 -0.399082 0
M  V30 23 C 2.83285 4.18807 -0.888607 0
M  V30 24 H -5.13895 -3.81771 0.109912 0
M  V30 25 H -6.37763 -2.64202 0.616365 0
M  V30 26 H -3.49226 -2.01168 1.99269 0
M  V30 27 H -1.92438 -0.193269 1.58541 0
M  V30 28 H -3.69296 0.50753 -2.21752 0
M  V30 29 H -5.32439 -1.35572 -1.83855 0
M  V30 30 H -0.0685029 0.180173 -0.126843 0
M  V30 31 H 2.6098 0.938279 1.97298 0
M  V30 32 H 3.18634 -1.3441 2.56061 0
M  V30 33 H 2.64983 -2.49557 -1.57565 0
M  V30 34 H 2.08192 -0.174633 -2.08711 0
M  V30 35 H 4.20669 -3.59915 1.26365 0
M  V30 36 H 2.60325 -4.13808 0.696426 0
M  V30 37 H 3.82856 4.72876 -0.926907 0
M  V30 38 H 2.27192 4.75538 -0.111262 0
M  V30 39 H 2.42448 4.33447 -1.90581 0
M  V30 END ATOM
M  V30 BEGIN BOND
M  V30 1 1 1 2
M  V30 2 2 2 3
M  V30 3 1 3 4
M  V30 4 2 4 5
M  V30 5 1 5 6
M  V30 6 2 6 7
M  V30 7 1 5 8
M  V30 8 2 8 9
M  V30 9 1 8 10
M  V30 10 1 10 11
M  V30 11 2 11 12
M  V30 12 1 11 13
M  V30 13 1 13 14
M  V30 14 2 14 15
M  V30 15 1 15 16
M  V30 16 2 16 17
M  V30 17 1 17 18
M  V30 18 2 18 19
M  V30 19 1 17 20
M  V30 20 1 13 21
M  V30 21 2 21 22
M  V30 22 1 21 23
M  V30 23 1 7 2
M  V30 24 1 19 14
M  V30 25 1 1 24
M  V30 26 1 1 25
M  V30 27 1 3 26
M  V30 28 1 4 27
M  V30 29 1 6 28
M  V30 30 1 7 29
M  V30 31 1 10 30
M  V30 32 1 15 31
M  V30 33 1 16 32
M  V30 34 1 18 33
M  V30 35 1 19 34
M  V30 36 1 20 35
M  V30 37 1 20 36
M  V30 38 1 23 37
M  V30 39 1 23 38
M  V30 40 1 23 39
M  V30 END BOND
M  V30 END CTAB
M  END
