
     RDKit          3D

  0  0  0  0  0  0  0  0  0  0999 V3000
M  V30 BEGIN CTAB
M  V30 COUNTS 61 64 0 0 0
M  V30 BEGIN ATOM
M  V30 1 N -8.33938 0.886537 1.581 0
M  V30 2 C -7.96415 0.43262 0.324009 0
M  V30 3 C -6.45825 0.207844 0.319131 0
M  V30 4 C -5.98766 -0.286357 -1.01962 0
M  V30 5 C -4.52114 -0.505478 -1.01219 0
M  V30 6 C -3.67716 0.669107 -0.77427 0
M  V30 7 O -4.14294 1.82633 -0.781084 0
M  V30 8 N -2.29708 0.504415 -0.531428 0
M  V30 9 C -1.38088 1.60145 -0.285994 0
M  V30 10 C -0.22158 1.05154 0.51202 0
M  V30 11 C 0.562493 0.00206127 -0.248598 0
M  V30 12 C -0.372048 -0.701249 -1.21293 0
M  V30 13 C -1.73175 -0.826008 -0.520976 0
M  V30 14 O 1.48006 0.692772 -1.02733 0
M  V30 15 C 2.29926 -0.101694 -1.76389 0
M  V30 16 C 3.07196 -1.13548 -0.984948 0 CFG=2
M  V30 17 C 2.35405 -1.73487 0.164673 0 CFG=2
M  V30 18 C 1.18619 -0.979642 0.687649 0
M  V30 19 C 3.31567 -2.06263 1.32028 0
M  V30 20 O 1.87066 -3.00693 -0.222737 0
M  V30 21 N 4.40281 -0.628516 -0.612124 0
M  V30 22 C 5.61223 -1.19742 -0.84392 0
M  V30 23 N 6.5997 -0.456513 -0.365232 0
M  V30 24 C 6.07431 0.621865 0.196114 0
M  V30 25 C 4.69796 0.514172 0.0414572 0
M  V30 26 N 3.9559 1.49932 0.536157 0
M  V30 27 C 4.45269 2.57678 1.16761 0
M  V30 28 N 5.78514 2.68142 1.31759 0
M  V30 29 C 6.6182 1.73317 0.849549 0
M  V30 30 N 8.03087 1.8102 0.989625 0
M  V30 31 H -7.63949 1.32295 2.1063 0
M  V30 32 H -9.27815 1.15133 1.72131 0
M  V30 33 H -8.17665 1.23318 -0.43118 0
M  V30 34 H -8.46509 -0.50522 0.0181122 0
M  V30 35 H -6.22036 -0.58735 1.0733 0
M  V30 36 H -5.93312 1.11266 0.593011 0
M  V30 37 H -6.24216 0.442164 -1.82367 0
M  V30 38 H -6.47633 -1.25352 -1.29801 0
M  V30 39 H -4.19288 -0.913024 -2.01977 0
M  V30 40 H -4.21522 -1.2638 -0.231801 0
M  V30 41 H -1.89714 2.3306 0.340661 0
M  V30 42 H -1.06207 2.11242 -1.2154 0
M  V30 43 H 0.444241 1.90581 0.77765 0
M  V30 44 H -0.63466 0.66553 1.45901 0
M  V30 45 H 0.00285884 -1.76129 -1.31649 0
M  V30 46 H -0.457777 -0.208853 -2.18291 0
M  V30 47 H -1.55944 -1.10929 0.533739 0
M  V30 48 H -2.36835 -1.57294 -1.03506 0
M  V30 49 H 3.00938 0.533139 -2.31947 0
M  V30 50 H 1.66634 -0.597336 -2.55737 0
M  V30 51 H 3.2974 -1.93704 -1.75606 0
M  V30 52 H 1.54249 -0.390405 1.58211 0
M  V30 53 H 0.380895 -1.62821 1.09447 0
M  V30 54 H 4.21262 -2.57747 0.973017 0
M  V30 55 H 3.50602 -1.16822 1.94632 0
M  V30 56 H 2.79441 -2.78868 2.01298 0
M  V30 57 H 2.03244 -3.1589 -1.18494 0
M  V30 58 H 5.732 -2.1374 -1.35651 0
M  V30 59 H 3.82905 3.37505 1.56704 0
M  V30 60 H 8.50151 1.68461 1.89401 0
M  V30 61 H 8.59112 2.00068 0.138331 0
M  V30 END ATOM
M  V30 BEGIN BOND
M  V30 1 1 1 2
M  V30 2 1 2 3
M  V30 3 1 3 4
M  V30 4 1 4 5
M  V30 5 1 5 6
M  V30 6 2 6 7
M  V30 7 1 6 8
M  V30 8 1 8 9
M  V30 9 1 9 10
M  V30 10 1 10 11
M  V30 11 1 11 12
M  V30 12 1 12 13
M  V30 13 1 11 14
M  V30 14 1 14 15
M  V30 15 1 15 16
M  V30 16 1 16 17
M  V30 17 1 17 18
M  V30 18 1 17 19
M  V30 19 1 17 20 CFG=3
M  V30 20 1 16 21
M  V30 21 1 21 22
M  V30 22 2 22 23
M  V30 23 1 23 24
M  V30 24 2 24 25
M  V30 25 1 25 26
M  V30 26 2 26 27
M  V30 27 1 27 28
M  V30 28 2 28 29
M  V30 29 1 29 30
M  V30 30 1 13 8
M  V30 31 1 25 21
M  V30 32 1 18 11
M  V30 33 1 29 24
M  V30 34 1 1 31
M  V30 35 1 1 32
M  V30 36 1 2 33
M  V30 37 1 2 34
M  V30 38 1 3 35
M  V30 39 1 3 36
M  V30 40 1 4 37
M  V30 41 1 4 38
M  V30 42 1 5 39
M  V30 43 1 5 40
M  V30 44 1 9 41
M  V30 45 1 9 42
M  V30 46 1 10 43
M  V30 47 1 10 44
M  V30 48 1 12 45
M  V30 49 1 12 46
M  V30 50 1 13 47
M  V30 51 1 13 48
M  V30 52 1 15 49
M  V30 53 1 15 50
M  V30 54 1 16 51 CFG=3
M  V30 55 1 18 52
M  V30 56 1 18 53
M  V30 57 1 19 54
M  V30 58 1 19 55
M  V30 59 1 19 56
M  V30 60 1 20 57
M  V30 61 1 22 58
M  V30 62 1 27 59
M  V30 63 1 30 60
M  V30 64 1 30 61
M  V30 END BOND
M  V30 END CTAB
M  END
