
     RDKit          3D

  0  0  0  0  0  0  0  0  0  0999 V3000
M  V30 BEGIN CTAB
M  V30 COUNTS 15 15 0 0 0
M  V30 BEGIN ATOM
M  V30 1 N 2.31004 -0.882691 0.603057 0
M  V30 2 C 1.34012 0.106343 0.34951 0
M  V30 3 N 1.641 1.38115 0.320382 0
M  V30 4 O 2.89493 1.84738 0.529269 0
M  V30 5 C -0.0599887 -0.216708 0.102837 0
M  V30 6 N -0.536414 -1.47332 0.0970327 0
M  V30 7 N -1.85284 -1.43338 -0.158311 0
M  V30 8 C -2.16979 -0.132889 -0.307745 0
M  V30 9 N -3.49284 0.303992 -0.591404 0
M  V30 10 O -1.06925 0.555459 -0.143452 0
M  V30 11 H 2.94417 -1.1978 -0.152617 0
M  V30 12 H 2.40541 -1.30794 1.53962 0
M  V30 13 H 3.65705 1.50502 -0.0449749 0
M  V30 14 H -4.16755 0.474072 0.180811 0
M  V30 15 H -3.84406 0.471307 -1.55988 0
M  V30 END ATOM
M  V30 BEGIN BOND
M  V30 1 1 1 2
M  V30 2 2 2 3 CFG=2
M  V30 3 1 3 4
M  V30 4 1 2 5
M  V30 5 2 5 6
M  V30 6 1 6 7
M  V30 7 2 7 8
M  V30 8 1 8 9
M  V30 9 1 8 10
M  V30 10 1 10 5
M  V30 11 1 1 11
M  V30 12 1 1 12
M  V30 13 1 4 13
M  V30 14 1 9 14
M  V30 15 1 9 15
M  V30 END BOND
M  V30 END CTAB
M  END
