
     RDKit          3D

  0  0  0  0  0  0  0  0  0  0999 V3000
M  V30 BEGIN CTAB
M  V30 COUNTS 29 29 0 0 0
M  V30 BEGIN ATOM
M  V30 1 C -3.82883 -0.205721 -0.0771555 0
M  V30 2 C -2.46597 -0.0393487 -0.702618 0
M  V30 3 C -2.22265 1.41943 -0.965179 0
M  V30 4 C -1.42055 -0.645974 0.222763 0
M  V30 5 N -1.38107 -0.052723 1.49085 0
M  V30 6 C -0.169403 -0.843881 -0.52313 0
M  V30 7 O -0.423095 -1.41436 -1.68685 0
M  V30 8 C 1.18093 -0.532122 -0.196774 0
M  V30 9 C 1.62554 0.046572 0.935567 0
M  V30 10 C 2.99533 0.311872 1.157 0
M  V30 11 Cl 3.47292 1.06934 2.66574 0
M  V30 12 C 3.90108 -0.03336 0.182525 0
M  V30 13 N 5.27879 0.222374 0.381347 0
M  V30 14 N 3.46575 -0.609938 -0.947619 0
M  V30 15 C 2.16131 -0.857712 -1.14802 0
M  V30 16 H -4.58963 -0.260382 -0.90786 0
M  V30 17 H -4.10168 0.645873 0.557464 0
M  V30 18 H -3.87814 -1.15549 0.516794 0
M  V30 19 H -2.36818 -0.569922 -1.67184 0
M  V30 20 H -2.87865 1.71312 -1.81108 0
M  V30 21 H -1.17518 1.55151 -1.3376 0
M  V30 22 H -2.46673 2.07195 -0.117439 0
M  V30 23 H -1.82187 -1.70601 0.383867 0
M  V30 24 H -1.77623 0.903053 1.57083 0
M  V30 25 H -1.58432 -0.675222 2.29214 0
M  V30 26 H 0.945582 0.326477 1.71174 0
M  V30 27 H 5.97738 0.248231 -0.383705 0
M  V30 28 H 5.63716 0.398448 1.34687 0
M  V30 29 H 1.9104 -1.32609 -2.09234 0
M  V30 END ATOM
M  V30 BEGIN BOND
M  V30 1 1 1 2
M  V30 2 1 2 3
M  V30 3 1 2 4
M  V30 4 1 4 5
M  V30 5 1 4 6
M  V30 6 2 6 7
M  V30 7 1 6 8
M  V30 8 2 8 9
M  V30 9 1 9 10
M  V30 10 1 10 11
M  V30 11 2 10 12
M  V30 12 1 12 13
M  V30 13 1 12 14
M  V30 14 2 14 15
M  V30 15 1 15 8
M  V30 16 1 1 16
M  V30 17 1 1 17
M  V30 18 1 1 18
M  V30 19 1 2 19
M  V30 20 1 3 20
M  V30 21 1 3 21
M  V30 22 1 3 22
M  V30 23 1 4 23
M  V30 24 1 5 24
M  V30 25 1 5 25
M  V30 26 1 9 26
M  V30 27 1 13 27
M  V30 28 1 13 28
M  V30 29 1 15 29
M  V30 END BOND
M  V30 END CTAB
M  END
