
     RDKit          3D

  0  0  0  0  0  0  0  0  0  0999 V3000
M  V30 BEGIN CTAB
M  V30 COUNTS 43 43 0 0 0
M  V30 BEGIN ATOM
M  V30 1 N -1.70889 2.08163 -2.33086 0
M  V30 2 C -1.80121 0.901046 -1.46994 0 CFG=1
M  V30 3 C -0.508128 0.86673 -0.771522 0
M  V30 4 O 0.120214 1.95499 -0.551588 0
M  V30 5 N 0.120726 -0.32685 -0.313129 0
M  V30 6 C 1.39546 -0.280976 0.358675 0
M  V30 7 C 1.79948 -1.68521 0.719795 0
M  V30 8 C 3.1247 -1.71432 1.43415 0
M  V30 9 C 4.23693 -1.13744 0.584381 0
M  V30 10 C 4.94882 -1.95024 -0.263287 0
M  V30 11 S 6.04911 -0.840235 -0.956837 0
M  V30 12 C 5.54449 0.569503 -0.138667 0
M  V30 13 N 4.56061 0.11633 0.622051 0
M  V30 14 N 6.06171 1.90588 -0.252338 0
M  V30 15 C -2.99869 1.11317 -0.637943 0
M  V30 16 C -3.4221 0.119061 0.365613 0
M  V30 17 C -4.74626 0.70563 0.96273 0
M  V30 18 C -2.49784 0.00393375 1.56454 0
M  V30 19 C -3.75968 -1.23794 -0.153576 0
M  V30 20 H -2.3551 2.09481 -3.07788 0
M  V30 21 H -1.61943 2.90335 -1.79784 0
M  V30 22 H -1.87282 0.0469814 -2.17419 0
M  V30 23 H -0.366608 -1.22349 -0.478184 0
M  V30 24 H 2.16369 0.176938 -0.299963 0
M  V30 25 H 1.25702 0.304324 1.29231 0
M  V30 26 H 1.84559 -2.26851 -0.231359 0
M  V30 27 H 1.0138 -2.07994 1.38924 0
M  V30 28 H 3.42342 -2.72112 1.74117 0
M  V30 29 H 3.03718 -1.12363 2.39092 0
M  V30 30 H 4.81123 -3.03532 -0.423145 0
M  V30 31 H 6.78836 2.07199 -0.971531 0
M  V30 32 H 5.70026 2.62493 0.367529 0
M  V30 33 H -3.86971 1.38965 -1.3176 0
M  V30 34 H -2.84549 2.102 -0.0816213 0
M  V30 35 H -5.09784 0.0585748 1.78233 0
M  V30 36 H -4.45917 1.69381 1.36955 0
M  V30 37 H -5.49116 0.805858 0.146644 0
M  V30 38 H -2.05281 -1.00333 1.54423 0
M  V30 39 H -1.78171 0.824411 1.63328 0
M  V30 40 H -3.14667 0.00626 2.50088 0
M  V30 41 H -4.52256 -1.68076 0.551041 0
M  V30 42 H -4.20356 -1.21711 -1.16001 0
M  V30 43 H -2.87537 -1.91537 -0.0789323 0
M  V30 END ATOM
M  V30 BEGIN BOND
M  V30 1 1 1 2
M  V30 2 1 2 3
M  V30 3 2 3 4
M  V30 4 1 3 5
M  V30 5 1 5 6
M  V30 6 1 6 7
M  V30 7 1 7 8
M  V30 8 1 8 9
M  V30 9 2 9 10
M  V30 10 1 10 11
M  V30 11 1 11 12
M  V30 12 2 12 13
M  V30 13 1 12 14
M  V30 14 1 2 15
M  V30 15 1 15 16
M  V30 16 1 16 17
M  V30 17 1 16 18
M  V30 18 1 16 19
M  V30 19 1 13 9
M  V30 20 1 1 20
M  V30 21 1 1 21
M  V30 22 1 2 22 CFG=3
M  V30 23 1 5 23
M  V30 24 1 6 24
M  V30 25 1 6 25
M  V30 26 1 7 26
M  V30 27 1 7 27
M  V30 28 1 8 28
M  V30 29 1 8 29
M  V30 30 1 10 30
M  V30 31 1 14 31
M  V30 32 1 14 32
M  V30 33 1 15 33
M  V30 34 1 15 34
M  V30 35 1 17 35
M  V30 36 1 17 36
M  V30 37 1 17 37
M  V30 38 1 18 38
M  V30 39 1 18 39
M  V30 40 1 18 40
M  V30 41 1 19 41
M  V30 42 1 19 42
M  V30 43 1 19 43
M  V30 END BOND
M  V30 END CTAB
M  END
