
     RDKit          3D

  0  0  0  0  0  0  0  0  0  0999 V3000
M  V30 BEGIN CTAB
M  V30 COUNTS 29 30 0 0 0
M  V30 BEGIN ATOM
M  V30 1 C 5.03704 1.22856 -0.221758 0
M  V30 2 O 4.09501 0.496172 -0.958524 0
M  V30 3 C 2.85825 0.125935 -0.452298 0
M  V30 4 C 2.45931 0.461208 0.844113 0
M  V30 5 C 1.22541 0.0798417 1.31932 0
M  V30 6 C 0.329577 -0.639293 0.562225 0
M  V30 7 C 0.728653 -0.969308 -0.721238 0
M  V30 8 C 1.9628 -0.59431 -1.2126 0
M  V30 9 C -0.99522 -1.03965 1.09519 0
M  V30 10 C -2.07847 -0.194914 0.475868 0
M  V30 11 N -1.94069 0.926855 -0.241458 0
M  V30 12 N -3.14522 1.36058 -0.602919 0
M  V30 13 C -4.07937 0.500424 -0.108293 0
M  V30 14 N -3.39974 -0.435884 0.543576 0
M  V30 15 N -5.47784 0.657107 -0.303277 0
M  V30 16 N -1.31892 -2.41043 0.799547 0
M  V30 17 H 6.04333 0.971027 -0.639243 0
M  V30 18 H 4.83477 2.32375 -0.346526 0
M  V30 19 H 5.07576 0.980366 0.845256 0
M  V30 20 H 3.13723 1.03057 1.47975 0
M  V30 21 H 0.959532 0.359478 2.32331 0
M  V30 22 H 0.0400251 -1.54005 -1.3479 0
M  V30 23 H 2.23793 -0.869488 -2.21624 0
M  V30 24 H -1.01979 -0.829425 2.1717 0
M  V30 25 H -3.34297 2.20057 -1.16018 0
M  V30 26 H -6.0233 1.35621 0.239461 0
M  V30 27 H -5.96223 0.0703012 -0.992583 0
M  V30 28 H -1.6997 -2.53618 -0.156524 0
M  V30 29 H -0.541188 -3.07003 1.02393 0
M  V30 END ATOM
M  V30 BEGIN BOND
M  V30 1 1 1 2
M  V30 2 1 2 3
M  V30 3 2 3 4
M  V30 4 1 4 5
M  V30 5 2 5 6
M  V30 6 1 6 7
M  V30 7 2 7 8
M  V30 8 1 6 9
M  V30 9 1 9 10
M  V30 10 2 10 11
M  V30 11 1 11 12
M  V30 12 1 12 13
M  V30 13 2 13 14
M  V30 14 1 13 15
M  V30 15 1 9 16
M  V30 16 1 8 3
M  V30 17 1 14 10
M  V30 18 1 1 17
M  V30 19 1 1 18
M  V30 20 1 1 19
M  V30 21 1 4 20
M  V30 22 1 5 21
M  V30 23 1 7 22
M  V30 24 1 8 23
M  V30 25 1 9 24
M  V30 26 1 12 25
M  V30 27 1 15 26
M  V30 28 1 15 27
M  V30 29 1 16 28
M  V30 30 1 16 29
M  V30 END BOND
M  V30 END CTAB
M  END
