
     RDKit          3D

  0  0  0  0  0  0  0  0  0  0999 V3000
M  V30 BEGIN CTAB
M  V30 COUNTS 42 44 0 0 0
M  V30 BEGIN ATOM
M  V30 1 C 3.5548 -3.17867 0.750279 0
M  V30 2 O 2.60652 -2.15418 0.502462 0
M  V30 3 C 3.01577 -0.886911 0.142388 0
M  V30 4 C 2.05275 0.0716394 -0.086853 0
M  V30 5 C 2.50431 1.3208 -0.44341 0
M  V30 6 C 3.86652 1.62499 -0.572659 0
M  V30 7 C 4.80232 0.64725 -0.337255 0
M  V30 8 C 4.3596 -0.61399 0.0223007 0
M  V30 9 C 6.21165 0.926117 -0.461139 0
M  V30 10 N 7.14378 -0.114429 -0.208539 0
M  V30 11 N 6.64385 2.07397 -0.789249 0
M  V30 12 C 0.636241 -0.245706 0.0477885 0
M  V30 13 C -0.419541 0.630809 -0.155548 0
M  V30 14 C -1.60344 -0.0405818 0.0678291 0
M  V30 15 N -1.22225 -1.28794 0.39524 0
M  V30 16 O 0.0766938 -1.38347 0.377226 0
M  V30 17 C -2.96576 0.464175 -0.0234944 0
M  V30 18 C -4.05159 -0.344515 0.234127 0
M  V30 19 C -5.34558 0.0956621 0.158362 0
M  V30 20 C -5.58067 1.4054 -0.190717 0
M  V30 21 C -4.51454 2.27054 -0.463071 0
M  V30 22 C -3.22624 1.77117 -0.370959 0
M  V30 23 C -6.49164 -0.79559 0.440584 0
M  V30 24 N -7.81171 -0.290628 0.348705 0
M  V30 25 N -6.29291 -2.01571 0.765866 0
M  V30 26 H 3.97268 -3.49691 -0.216813 0
M  V30 27 H 3.08978 -4.03647 1.28588 0
M  V30 28 H 4.38634 -2.83523 1.39816 0
M  V30 29 H 1.80816 2.10891 -0.635126 0
M  V30 30 H 4.17195 2.63403 -0.858676 0
M  V30 31 H 5.12965 -1.3616 0.200419 0
M  V30 32 H 7.42219 -0.264236 0.786486 0
M  V30 33 H 7.49079 -0.65915 -1.01323 0
M  V30 34 H 6.13582 2.93478 -1.00713 0
M  V30 35 H -0.338768 1.65916 -0.438892 0
M  V30 36 H -3.86477 -1.36267 0.505338 0
M  V30 37 H -6.57564 1.83427 -0.273632 0
M  V30 38 H -4.69207 3.30419 -0.738825 0
M  V30 39 H -2.40329 2.4404 -0.58159 0
M  V30 40 H -8.16173 0.110789 -0.532304 0
M  V30 41 H -8.41929 -0.334171 1.1901 0
M  V30 42 H -7.10076 -2.62625 0.960018 0
M  V30 END ATOM
M  V30 BEGIN BOND
M  V30 1 1 1 2
M  V30 2 1 2 3
M  V30 3 2 3 4
M  V30 4 1 4 5
M  V30 5 2 5 6
M  V30 6 1 6 7
M  V30 7 2 7 8
M  V30 8 1 7 9
M  V30 9 1 9 10
M  V30 10 2 9 11 CFG=2
M  V30 11 1 4 12
M  V30 12 2 12 13
M  V30 13 1 13 14
M  V30 14 2 14 15
M  V30 15 1 15 16
M  V30 16 1 14 17
M  V30 17 2 17 18
M  V30 18 1 18 19
M  V30 19 2 19 20
M  V30 20 1 20 21
M  V30 21 2 21 22
M  V30 22 1 19 23
M  V30 23 1 23 24
M  V30 24 2 23 25 CFG=2
M  V30 25 1 8 3
M  V30 26 1 16 12
M  V30 27 1 22 17
M  V30 28 1 1 26
M  V30 29 1 1 27
M  V30 30 1 1 28
M  V30 31 1 5 29
M  V30 32 1 6 30
M  V30 33 1 8 31
M  V30 34 1 10 32
M  V30 35 1 10 33
M  V30 36 1 11 34
M  V30 37 1 13 35
M  V30 38 1 18 36
M  V30 39 1 20 37
M  V30 40 1 21 38
M  V30 41 1 22 39
M  V30 42 1 24 40
M  V30 43 1 24 41
M  V30 44 1 25 42
M  V30 END BOND
M  V30 END CTAB
M  END
