
     RDKit          3D

  0  0  0  0  0  0  0  0  0  0999 V3000
M  V30 BEGIN CTAB
M  V30 COUNTS 22 23 0 0 0
M  V30 BEGIN ATOM
M  V30 1 N 3.41626 -0.641893 -0.434695 0
M  V30 2 C 2.14473 -0.0371202 -0.233861 0
M  V30 3 C 0.99569 -0.801091 -0.189393 0
M  V30 4 C -0.261623 -0.234381 0.00590973 0
M  V30 5 C -0.377029 1.13236 0.161281 0
M  V30 6 C -1.63014 1.7152 0.357804 0
M  V30 7 C -2.75387 0.90732 0.394932 0
M  V30 8 C -2.66831 -0.462118 0.242509 0
M  V30 9 C -1.40389 -1.00597 0.0488395 0
M  V30 10 N -1.26185 -2.40528 -0.112818 0
M  V30 11 C 0.772597 1.88971 0.116053 0
M  V30 12 C 2.02165 1.33091 -0.077525 0
M  V30 13 H 4.28706 -0.327843 0.0456956 0
M  V30 14 H 3.49266 -1.44434 -1.09683 0
M  V30 15 H 1.06793 -1.87188 -0.309152 0
M  V30 16 H -1.67548 2.78823 0.474897 0
M  V30 17 H -3.70055 1.40852 0.549753 0
M  V30 18 H -3.56066 -1.0856 0.273882 0
M  V30 19 H -1.75739 -2.85953 -0.919232 0
M  V30 20 H -0.677704 -2.94125 0.562633 0
M  V30 21 H 0.636056 2.9657 0.243321 0
M  V30 22 H 2.89386 1.98034 -0.104 0
M  V30 END ATOM
M  V30 BEGIN BOND
M  V30 1 1 1 2
M  V30 2 2 2 3
M  V30 3 1 3 4
M  V30 4 2 4 5
M  V30 5 1 5 6
M  V30 6 2 6 7
M  V30 7 1 7 8
M  V30 8 2 8 9
M  V30 9 1 9 10
M  V30 10 1 5 11
M  V30 11 2 11 12
M  V30 12 1 12 2
M  V30 13 1 9 4
M  V30 14 1 1 13
M  V30 15 1 1 14
M  V30 16 1 3 15
M  V30 17 1 6 16
M  V30 18 1 7 17
M  V30 19 1 8 18
M  V30 20 1 10 19
M  V30 21 1 10 20
M  V30 22 1 11 21
M  V30 23 1 12 22
M  V30 END BOND
M  V30 END CTAB
M  END
