
     RDKit          3D

  0  0  0  0  0  0  0  0  0  0999 V3000
M  V30 BEGIN CTAB
M  V30 COUNTS 64 64 0 0 0
M  V30 BEGIN ATOM
M  V30 1 C 6.13448 -1.69342 -0.162624 0
M  V30 2 C 6.35734 -0.232308 0.226666 0
M  V30 3 C 5.25208 0.548643 -0.372992 0
M  V30 4 O 5.51687 1.32071 -1.32896 0
M  V30 5 N 3.91437 0.469902 0.0762886 0
M  V30 6 C 3.53979 -0.38398 1.16986 0
M  V30 7 C 2.70379 -1.55546 0.781533 0
M  V30 8 O 1.3372 -1.31852 0.824639 0
M  V30 9 C 0.675584 -2.51957 0.703691 0
M  V30 10 C -0.47196 -2.46261 -0.277602 0
M  V30 11 O -1.54818 -1.7335 0.153324 0
M  V30 12 C -2.37405 -1.52876 -0.977114 0
M  V30 13 C -3.77151 -1.15925 -0.604172 0
M  V30 14 N -3.96473 0.17971 -0.150012 0
M  V30 15 C -3.02376 1.27496 -0.3766 0
M  V30 16 C -2.34171 1.71159 0.89664 0
M  V30 17 O -1.60962 2.86903 0.56828 0
M  V30 18 C -0.636567 2.48561 -0.353096 0
M  V30 19 C 0.580594 3.34354 -0.15082 0
M  V30 20 O 1.53818 2.7621 0.641271 0
M  V30 21 C 2.7661 2.63563 0.0143353 0
M  V30 22 C 2.86955 1.25156 -0.551384 0
M  V30 23 C -5.14928 0.488847 0.573812 0
M  V30 24 O -5.38729 1.65947 1.01219 0
M  V30 25 C -6.18077 -0.547 0.859468 0
M  V30 26 N -7.26956 0.00175394 1.6511 0
M  V30 27 C -6.80433 -1.06876 -0.42066 0
M  V30 28 N 7.63391 0.136537 -0.365274 0
M  V30 29 H 7.04234 -2.13638 -0.638921 0
M  V30 30 H 5.86786 -2.31938 0.707699 0
M  V30 31 H 5.33086 -1.79703 -0.922964 0
M  V30 32 H 6.4072 -0.105494 1.3265 0
M  V30 33 H 4.41329 -0.741245 1.74464 0
M  V30 34 H 2.91149 0.239804 1.85925 0
M  V30 35 H 2.88804 -2.37074 1.53785 0
M  V30 36 H 3.00689 -2.02023 -0.196251 0
M  V30 37 H 0.338783 -2.91926 1.68903 0
M  V30 38 H 1.3776 -3.28306 0.307355 0
M  V30 39 H -0.136646 -2.13868 -1.27538 0
M  V30 40 H -0.816477 -3.52742 -0.407363 0
M  V30 41 H -1.89923 -0.858088 -1.71487 0
M  V30 42 H -2.45146 -2.52008 -1.51873 0
M  V30 43 H -4.38467 -1.28901 -1.54369 0
M  V30 44 H -4.13561 -1.92704 0.109711 0
M  V30 45 H -2.25041 1.04721 -1.107 0
M  V30 46 H -3.67145 2.14109 -0.691307 0
M  V30 47 H -1.59157 0.964138 1.20406 0
M  V30 48 H -3.04556 1.90791 1.72849 0
M  V30 49 H -0.385473 1.43776 -0.159208 0
M  V30 50 H -1.01019 2.63883 -1.39914 0
M  V30 51 H 0.259161 4.29088 0.316453 0
M  V30 52 H 1.02179 3.63672 -1.14339 0
M  V30 53 H 3.60523 2.88646 0.697257 0
M  V30 54 H 2.78607 3.42117 -0.791434 0
M  V30 55 H 1.91952 0.685005 -0.483217 0
M  V30 56 H 3.17449 1.36244 -1.62362 0
M  V30 57 H -5.72273 -1.37716 1.44978 0
M  V30 58 H -7.57886 0.871779 1.14968 0
M  V30 59 H -8.09109 -0.655663 1.5734 0
M  V30 60 H -6.42394 -2.09874 -0.575378 0
M  V30 61 H -6.59469 -0.4085 -1.265 0
M  V30 62 H -7.91901 -1.19595 -0.30945 0
M  V30 63 H 7.43671 0.220707 -1.40787 0
M  V30 64 H 8.03524 1.00078 0.0244388 0
M  V30 END ATOM
M  V30 BEGIN BOND
M  V30 1 1 1 2
M  V30 2 1 2 3
M  V30 3 2 3 4
M  V30 4 1 3 5
M  V30 5 1 5 6
M  V30 6 1 6 7
M  V30 7 1 7 8
M  V30 8 1 8 9
M  V30 9 1 9 10
M  V30 10 1 10 11
M  V30 11 1 11 12
M  V30 12 1 12 13
M  V30 13 1 13 14
M  V30 14 1 14 15
M  V30 15 1 15 16
M  V30 16 1 16 17
M  V30 17 1 17 18
M  V30 18 1 18 19
M  V30 19 1 19 20
M  V30 20 1 20 21
M  V30 21 1 21 22
M  V30 22 1 14 23
M  V30 23 2 23 24
M  V30 24 1 23 25
M  V30 25 1 25 26
M  V30 26 1 25 27
M  V30 27 1 2 28
M  V30 28 1 22 5
M  V30 29 1 1 29
M  V30 30 1 1 30
M  V30 31 1 1 31
M  V30 32 1 2 32
M  V30 33 1 6 33
M  V30 34 1 6 34
M  V30 35 1 7 35
M  V30 36 1 7 36
M  V30 37 1 9 37
M  V30 38 1 9 38
M  V30 39 1 10 39
M  V30 40 1 10 40
M  V30 41 1 12 41
M  V30 42 1 12 42
M  V30 43 1 13 43
M  V30 44 1 13 44
M  V30 45 1 15 45
M  V30 46 1 15 46
M  V30 47 1 16 47
M  V30 48 1 16 48
M  V30 49 1 18 49
M  V30 50 1 18 50
M  V30 51 1 19 51
M  V30 52 1 19 52
M  V30 53 1 21 53
M  V30 54 1 21 54
M  V30 55 1 22 55
M  V30 56 1 22 56
M  V30 57 1 25 57
M  V30 58 1 26 58
M  V30 59 1 26 59
M  V30 60 1 27 60
M  V30 61 1 27 61
M  V30 62 1 27 62
M  V30 63 1 28 63
M  V30 64 1 28 64
M  V30 END BOND
M  V30 END CTAB
M  END
