
     RDKit          3D

  0  0  0  0  0  0  0  0  0  0999 V3000
M  V30 BEGIN CTAB
M  V30 COUNTS 32 31 0 0 0
M  V30 BEGIN ATOM
M  V30 1 N 3.56181 -2.04099 0.757671 0
M  V30 2 C 3.01385 -0.704656 0.926156 0
M  V30 3 C 2.9008 -0.0239515 -0.407205 0
M  V30 4 N 2.38553 1.28577 -0.381173 0
M  V30 5 C 1.03484 1.49088 -0.0324763 0
M  V30 6 C 0.0331784 0.966244 -1.05617 0
M  V30 7 O 0.211832 1.58312 -2.29152 0
M  V30 8 C -1.3858 1.25874 -0.626592 0
M  V30 9 N -1.73374 0.691964 0.637642 0
M  V30 10 C -1.80428 -0.748998 0.624664 0
M  V30 11 C -2.951 -1.28127 -0.194647 0
M  V30 12 N -4.23742 -0.835336 0.280793 0
M  V30 13 H 3.05809 -2.74332 1.32804 0
M  V30 14 H 3.59638 -2.36516 -0.215278 0
M  V30 15 H 1.97751 -0.853663 1.33225 0
M  V30 16 H 3.65046 -0.183278 1.64266 0
M  V30 17 H 2.34675 -0.735496 -1.08151 0
M  V30 18 H 3.93229 0.0166171 -0.831858 0
M  V30 19 H 2.62644 1.82849 -1.21691 0
M  V30 20 H 0.870555 2.6106 -0.0312719 0
M  V30 21 H 0.752949 1.17563 0.993269 0
M  V30 22 H 0.188299 -0.124549 -1.14143 0
M  V30 23 H 0.246093 2.56185 -2.11812 0
M  V30 24 H -1.48941 2.36557 -0.545508 0
M  V30 25 H -2.05477 0.915406 -1.4363 0
M  V30 26 H -2.64416 1.06479 0.930451 0
M  V30 27 H -1.95675 -1.08687 1.66475 0
M  V30 28 H -0.878527 -1.21779 0.232294 0
M  V30 29 H -2.93172 -2.38709 -0.094114 0
M  V30 30 H -2.82048 -1.07535 -1.2779 0
M  V30 31 H -4.9919 -1.5191 0.0892023 0
M  V30 32 H -4.50768 0.111217 -0.0329136 0
M  V30 END ATOM
M  V30 BEGIN BOND
M  V30 1 1 1 2
M  V30 2 1 2 3
M  V30 3 1 3 4
M  V30 4 1 4 5
M  V30 5 1 5 6
M  V30 6 1 6 7
M  V30 7 1 6 8
M  V30 8 1 8 9
M  V30 9 1 9 10
M  V30 10 1 10 11
M  V30 11 1 11 12
M  V30 12 1 1 13
M  V30 13 1 1 14
M  V30 14 1 2 15
M  V30 15 1 2 16
M  V30 16 1 3 17
M  V30 17 1 3 18
M  V30 18 1 4 19
M  V30 19 1 5 20
M  V30 20 1 5 21
M  V30 21 1 6 22
M  V30 22 1 7 23
M  V30 23 1 8 24
M  V30 24 1 8 25
M  V30 25 1 9 26
M  V30 26 1 10 27
M  V30 27 1 10 28
M  V30 28 1 11 29
M  V30 29 1 11 30
M  V30 30 1 12 31
M  V30 31 1 12 32
M  V30 END BOND
M  V30 END CTAB
M  END
